xflr5 v6.55

 Calculated polar for: NACA 0010

 1 1 Reynolds number fixed          Mach number fixed         

 xtrf =   1.000 (top)        1.000 (bottom)
 Mach =   0.200     Re =     0.145 e 6     Ncrit =   9.000

  alpha     CL        CD       CDp       Cm    Top Xtr Bot Xtr   Cpmin    Chinge    XCp    
 ------- -------- --------- --------- -------- ------- ------- -------- --------- ---------
   0.000   0.0000   0.01179   0.00603  -0.0000  1.0000  1.0000  -0.3528   0.0000   0.0000   0.0000   0.4919
   0.100  -0.0065   0.01180   0.00604   0.0024  0.9997  1.0000  -0.3529   0.0000   0.0000   0.0000   0.6218
   0.200   0.0190   0.01181   0.00604  -0.0006  0.9952  1.0000  -0.3751   0.0000   0.0000   0.0000   0.2791
   0.300   0.0439   0.01180   0.00604  -0.0035  0.9906  1.0000  -0.3989   0.0000   0.0000   0.0000   0.3275
   0.400   0.0688   0.01178   0.00603  -0.0064  0.9852  1.0000  -0.4242   0.0000   0.0000   0.0000   0.3402
   0.500   0.0950   0.01175   0.00601  -0.0095  0.9810  1.0000  -0.4522   0.0000   0.0000   0.0000   0.3471
   0.600   0.1192   0.01169   0.00597  -0.0121  0.9749  1.0000  -0.4810   0.0000   0.0000   0.0000   0.3491
   0.700   0.1445   0.01162   0.00591  -0.0149  0.9690  1.0000  -0.5134   0.0000   0.0000   0.0000   0.3508
   0.800   0.1704   0.01153   0.00585  -0.0178  0.9638  1.0000  -0.5480   0.0000   0.0000   0.0000   0.3521
   0.900   0.1897   0.01144   0.00578  -0.0193  0.9535  1.0000  -0.5800   0.0000   0.0000   0.0000   0.3496
   1.000   0.2127   0.01133   0.00569  -0.0215  0.9458  1.0000  -0.6167   0.0000   0.0000   0.0000   0.3489
   1.100   0.2290   0.01124   0.00561  -0.0224  0.9334  1.0000  -0.6492   0.0000   0.0000   0.0000   0.3455
   1.300   0.2604   0.01104   0.00543  -0.0237  0.9084  1.0000  -0.7166   0.0000   0.0000   0.0000   0.3386
   1.400   0.2736   0.01095   0.00538  -0.0238  0.8950  1.0000  -0.7490   0.0000   0.0000   0.0000   0.3344
   1.500   0.2849   0.01086   0.00528  -0.0234  0.8804  1.0000  -0.7825   0.0000   0.0000   0.0000   0.3298
   1.600   0.2946   0.01080   0.00522  -0.0228  0.8647  1.0000  -0.8138   0.0000   0.0000   0.0000   0.3249
   1.700   0.3047   0.01074   0.00511  -0.0222  0.8505  1.0000  -0.8463   0.0000   0.0000   0.0000   0.3202
   1.800   0.3133   0.01071   0.00506  -0.0214  0.8333  1.0000  -0.8764   0.0000   0.0000   0.0000   0.3155
   1.900   0.3222   0.01068   0.00500  -0.0206  0.8173  1.0000  -0.9074   0.0000   0.0000   0.0000   0.3111
   2.000   0.3310   0.01066   0.00493  -0.0197  0.8010  1.0000  -0.9385   0.0000   0.0000   0.0000   0.3068
   2.100   0.3397   0.01066   0.00490  -0.0189  0.7835  1.0000  -0.9750   0.0000   0.0000   0.0000   0.3029
   2.200   0.3485   0.01068   0.00485  -0.0181  0.7670  1.0000  -1.0125   0.0000   0.0000   0.0000   0.2991
   2.300   0.3572   0.01070   0.00483  -0.0174  0.7487  1.0000  -1.0499   0.0000   0.0000   0.0000   0.2956
   2.400   0.3661   0.01074   0.00481  -0.0166  0.7307  1.0000  -1.0880   0.0000   0.0000   0.0000   0.2924
   2.600   0.3838   0.01084   0.00478  -0.0152  0.6937  1.0000  -1.1652   0.0000   0.0000   0.0000   0.2865
   2.700   0.3928   0.01091   0.00477  -0.0145  0.6751  1.0000  -1.2044   0.0000   0.0000   0.0000   0.2838
   2.800   0.4016   0.01099   0.00476  -0.0138  0.6561  1.0000  -1.2439   0.0000   0.0000   0.0000   0.2812
   2.900   0.4106   0.01106   0.00479  -0.0132  0.6360  1.0000  -1.2851   0.0000   0.0000   0.0000   0.2789
   3.000   0.4196   0.01116   0.00480  -0.0126  0.6167  1.0000  -1.3331   0.0000   0.0000   0.0000   0.2766
   3.100   0.4284   0.01127   0.00482  -0.0119  0.5967  1.0000  -1.3813   0.0000   0.0000   0.0000   0.2744
   3.200   0.4374   0.01137   0.00486  -0.0114  0.5757  1.0000  -1.4301   0.0000   0.0000   0.0000   0.2725
   3.300   0.4463   0.01149   0.00490  -0.0108  0.5551  1.0000  -1.4793   0.0000   0.0000   0.0000   0.2705
   3.400   0.4550   0.01163   0.00499  -0.0101  0.5345  1.0000  -1.5240   0.0000   0.0000   0.0000   0.2686
   3.500   0.4638   0.01175   0.00504  -0.0096  0.5125  1.0000  -1.5729   0.0000   0.0000   0.0000   0.2669
   3.600   0.4726   0.01189   0.00510  -0.0090  0.4901  1.0000  -1.6227   0.0000   0.0000   0.0000   0.2652
   3.700   0.4813   0.01204   0.00516  -0.0084  0.4678  1.0000  -1.6727   0.0000   0.0000   0.0000   0.2636
   3.800   0.4898   0.01221   0.00523  -0.0078  0.4451  1.0000  -1.7228   0.0000   0.0000   0.0000   0.2620
   3.900   0.4982   0.01240   0.00530  -0.0072  0.4217  1.0000  -1.7730   0.0000   0.0000   0.0000   0.2605
   4.000   0.5067   0.01258   0.00539  -0.0067  0.3970  1.0000  -1.8237   0.0000   0.0000   0.0000   0.2590
   4.100   0.5152   0.01278   0.00549  -0.0061  0.3716  1.0000  -1.8744   0.0000   0.0000   0.0000   0.2577
   4.200   0.5235   0.01300   0.00560  -0.0055  0.3458  1.0000  -1.9250   0.0000   0.0000   0.0000   0.2563
   4.300   0.5317   0.01325   0.00572  -0.0050  0.3194  1.0000  -1.9753   0.0000   0.0000   0.0000   0.2550
   4.400   0.5398   0.01352   0.00586  -0.0044  0.2923  1.0000  -2.0251   0.0000   0.0000   0.0000   0.2537
   4.500   0.5477   0.01383   0.00602  -0.0038  0.2652  1.0000  -2.0743   0.0000   0.0000   0.0000   0.2525
   4.600   0.5557   0.01414   0.00620  -0.0033  0.2387  1.0000  -2.1277   0.0000   0.0000   0.0000   0.2513
   4.700   0.5637   0.01448   0.00641  -0.0027  0.2144  1.0000  -2.1870   0.0000   0.0000   0.0000   0.2502
   4.800   0.5715   0.01486   0.00666  -0.0021  0.1933  1.0000  -2.2451   0.0000   0.0000   0.0000   0.2490
   4.900   0.5791   0.01527   0.00692  -0.0015  0.1753  1.0000  -2.3023   0.0000   0.0000   0.0000   0.2478
   5.000   0.5872   0.01562   0.00720  -0.0009  0.1596  1.0000  -2.3608   0.0000   0.0000   0.0000   0.2467
   5.100   0.5955   0.01597   0.00750  -0.0003  0.1463  1.0000  -2.4190   0.0000   0.0000   0.0000   0.2457
   5.200   0.6031   0.01641   0.00782   0.0003  0.1355  1.0000  -2.4759   0.0000   0.0000   0.0000   0.2445
   5.300   0.6118   0.01669   0.00809   0.0008  0.1258  1.0000  -2.5370   0.0000   0.0000   0.0000   0.2436
   5.400   0.6193   0.01719   0.00849   0.0015  0.1183  1.0000  -2.5918   0.0000   0.0000   0.0000   0.2425
   5.500   0.6283   0.01749   0.00888   0.0020  0.1117  1.0000  -2.6431   0.0000   0.0000   0.0000   0.2416
   5.600   0.6365   0.01788   0.00922   0.0026  0.1061  1.0000  -2.7010   0.0000   0.0000   0.0000   0.2407
   5.700   0.6444   0.01847   0.00975   0.0032  0.1014  1.0000  -2.7521   0.0000   0.0000   0.0000   0.2397
   5.800   0.6536   0.01878   0.01012   0.0037  0.0967  1.0000  -2.8090   0.0000   0.0000   0.0000   0.2389
   5.900   0.6624   0.01912   0.01044   0.0042  0.0922  1.0000  -2.8702   0.0000   0.0000   0.0000   0.2381
   6.000   0.6703   0.01970   0.01092   0.0047  0.0880  1.0000  -2.9291   0.0000   0.0000   0.0000   0.2373
   6.100   0.6794   0.02009   0.01137   0.0052  0.0843  1.0000  -2.9862   0.0000   0.0000   0.0000   0.2366
   6.200   0.6886   0.02038   0.01171   0.0057  0.0804  1.0000  -3.0477   0.0000   0.0000   0.0000   0.2360
   6.300   0.6976   0.02076   0.01208   0.0062  0.0774  1.0000  -3.1088   0.0000   0.0000   0.0000   0.2353
   6.400   0.7063   0.02128   0.01255   0.0066  0.0749  1.0000  -3.1688   0.0000   0.0000   0.0000   0.2347
   6.500   0.7147   0.02231   0.01352   0.0070  0.0724  1.0000  -3.2134   0.0000   0.0000   0.0000   0.2341
   6.600   0.7244   0.02269   0.01402   0.0076  0.0708  1.0000  -3.2653   0.0000   0.0000   0.0000   0.2335
   6.700   0.7339   0.02319   0.01461   0.0080  0.0690  1.0000  -3.3147   0.0000   0.0000   0.0000   0.2329
   6.800   0.7432   0.02374   0.01523   0.0085  0.0672  1.0000  -3.3637   0.0000   0.0000   0.0000   0.2323
   6.900   0.7525   0.02432   0.01586   0.0090  0.0655  1.0000  -3.4128   0.0000   0.0000   0.0000   0.2318
   7.000   0.7616   0.02490   0.01649   0.0094  0.0640  1.0000  -3.4633   0.0000   0.0000   0.0000   0.2312
   7.100   0.7707   0.02553   0.01714   0.0099  0.0626  1.0000  -3.5148   0.0000   0.0000   0.0000   0.2307
   7.200   0.7795   0.02626   0.01787   0.0102  0.0612  1.0000  -3.5685   0.0000   0.0000   0.0000   0.2303
   7.300   0.7872   0.02769   0.01931   0.0106  0.0595  1.0000  -3.6031   0.0000   0.0000   0.0000   0.2300
   7.400   0.7953   0.02828   0.02007   0.0112  0.0583  1.0000  -3.6418   0.0000   0.0000   0.0000   0.2292
   7.500   0.8036   0.02867   0.02061   0.0118  0.0566  1.0000  -3.6874   0.0000   0.0000   0.0000   0.2285
   7.600   0.8117   0.02915   0.02127   0.0124  0.0547  1.0000  -3.7381   0.0000   0.0000   0.0000   0.2279
   7.700   0.8198   0.02973   0.02195   0.0129  0.0532  1.0000  -3.7867   0.0000   0.0000   0.0000   0.2273
   7.800   0.8276   0.03049   0.02280   0.0134  0.0522  1.0000  -3.8261   0.0000   0.0000   0.0000   0.2268
   7.900   0.8353   0.03127   0.02367   0.0139  0.0513  1.0000  -3.8819   0.0000   0.0000   0.0000   0.2262
   8.000   0.8425   0.03208   0.02457   0.0145  0.0505  1.0000  -3.9427   0.0000   0.0000   0.0000   0.2256
   8.100   0.8495   0.03293   0.02550   0.0150  0.0497  1.0000  -4.0038   0.0000   0.0000   0.0000   0.2251
   8.200   0.8562   0.03389   0.02653   0.0155  0.0490  1.0000  -4.0627   0.0000   0.0000   0.0000   0.2245
   8.300   0.8621   0.03509   0.02781   0.0160  0.0484  1.0000  -4.1122   0.0000   0.0000   0.0000   0.2240
   8.400   0.8666   0.03666   0.02949   0.0166  0.0478  1.0000  -4.1432   0.0000   0.0000   0.0000   0.2233
   8.500   0.8694   0.03855   0.03154   0.0172  0.0474  1.0000  -4.1535   0.0000   0.0000   0.0000   0.2226
   8.700   0.8735   0.04181   0.03516   0.0188  0.0470  1.0000  -4.1676   0.0000   0.0000   0.0000   0.2207
   8.800   0.8755   0.04312   0.03667   0.0196  0.0468  1.0000  -4.1793   0.0000   0.0000   0.0000   0.2198
   8.900   0.8768   0.04456   0.03829   0.0204  0.0467  1.0000  -4.1850   0.0000   0.0000   0.0000   0.2188
   9.000   0.8773   0.04611   0.04001   0.0212  0.0466  1.0000  -4.1857   0.0000   0.0000   0.0000   0.2179
   9.100   0.8771   0.04774   0.04180   0.0219  0.0466  1.0000  -4.1823   0.0000   0.0000   0.0000   0.2170
   9.200   0.8761   0.04946   0.04366   0.0226  0.0467  1.0000  -4.1753   0.0000   0.0000   0.0000   0.2161
   9.300   0.8744   0.05124   0.04558   0.0232  0.0467  1.0000  -4.1651   0.0000   0.0000   0.0000   0.2153
   9.400   0.8722   0.05311   0.04756   0.0238  0.0468  1.0000  -4.1520   0.0000   0.0000   0.0000   0.2145
   9.500   0.8695   0.05511   0.04966   0.0243  0.0470  1.0000  -4.1362   0.0000   0.0000   0.0000   0.2137
   9.700   0.8660   0.05845   0.05321   0.0252  0.0474  1.0000  -4.1243   0.0000   0.0000   0.0000   0.2124
   9.800   0.8635   0.05959   0.05446   0.0257  0.0476  1.0000  -4.1197   0.0000   0.0000   0.0000   0.2116
   9.900   0.8586   0.06079   0.05579   0.0263  0.0479  1.0000  -4.0977   0.0000   0.0000   0.0000   0.2107
  10.000   0.8463   0.06230   0.05746   0.0270  0.0485  1.0000  -4.0226   0.0000   0.0000   0.0000   0.2092
  10.100   0.7774   0.07127   0.06689   0.0208  0.0516  1.0000  -3.4687   0.0000   0.0000   0.0000   0.2143
  10.200   0.7520   0.07813   0.07384   0.0144  0.0532  1.0000  -3.2314   0.0000   0.0000   0.0000   0.2219
  10.300   0.7336   0.08521   0.08093   0.0083  0.0550  1.0000  -3.0206   0.0000   0.0000   0.0000   0.2297
  10.400   0.7260   0.08927   0.08497   0.0056  0.0560  1.0000  -2.9312   0.0000   0.0000   0.0000   0.2332
  10.500   0.7220   0.09213   0.08783   0.0042  0.0568  1.0000  -2.8879   0.0000   0.0000   0.0000   0.2351
  10.600   0.7202   0.09432   0.09000   0.0035  0.0575  1.0000  -2.8732   0.0000   0.0000   0.0000   0.2359
  10.700   0.7202   0.09592   0.09159   0.0035  0.0581  1.0000  -2.8841   0.0000   0.0000   0.0000   0.2358
  10.800   0.7226   0.09659   0.09225   0.0048  0.0587  1.0000  -2.9376   0.0000   0.0000   0.0000   0.2339
  10.900   0.6642   0.11857   0.11415  -0.0130  0.0929  1.0000  -1.9841   0.0000   0.0000   0.0000   0.2610
  11.000   0.6654   0.12018   0.11576  -0.0135  0.0921  1.0000  -1.9886   0.0000   0.0000   0.0000   0.2616
  11.100   0.6672   0.12171   0.11729  -0.0137  0.0914  1.0000  -1.9988   0.0000   0.0000   0.0000   0.2618
  11.200   0.6698   0.12316   0.11874  -0.0138  0.0907  1.0000  -2.0157   0.0000   0.0000   0.0000   0.2618
  11.300   0.6731   0.12453   0.12011  -0.0137  0.0900  1.0000  -2.0398   0.0000   0.0000   0.0000   0.2614
  11.400   0.6774   0.12583   0.12142  -0.0133  0.0894  1.0000  -2.0725   0.0000   0.0000   0.0000   0.2606
  11.500   0.6826   0.12712   0.12271  -0.0127  0.0888  1.0000  -2.1148   0.0000   0.0000   0.0000   0.2594
  11.600   0.6894   0.12843   0.12403  -0.0115  0.0882  1.0000  -2.1709   0.0000   0.0000   0.0000   0.2574
  11.700   0.6976   0.13018   0.12580  -0.0096  0.0876  1.0000  -2.2426   0.0000   0.0000   0.0000   0.2544
  11.800   0.7009   0.13331   0.12891  -0.0088  0.0870  1.0000  -2.2633   0.0000   0.0000   0.0000   0.2531
  11.900   0.6961   0.13558   0.13117  -0.0109  0.0869  1.0000  -2.2093   0.0000   0.0000   0.0000   0.2562
  12.000   0.6905   0.13778   0.13335  -0.0132  0.0867  1.0000  -2.1470   0.0000   0.0000   0.0000   0.2596
  12.100   0.6831   0.13988   0.13542  -0.0162  0.0863  1.0000  -2.0650   0.0000   0.0000   0.0000   0.2642
  12.200   0.6685   0.14214   0.13763  -0.0214  0.0844  1.0000  -1.9131   0.0000   0.0000   0.0000   0.2723
  12.300   0.6655   0.14401   0.13949  -0.0232  0.0828  1.0000  -1.8721   0.0000   0.0000   0.0000   0.2751
  12.400   0.6652   0.14572   0.14119  -0.0242  0.0815  1.0000  -1.8564   0.0000   0.0000   0.0000   0.2765
  12.500   0.6657   0.14735   0.14282  -0.0250  0.0804  1.0000  -1.8495   0.0000   0.0000   0.0000   0.2775
  12.600   0.6668   0.14892   0.14439  -0.0256  0.0794  1.0000  -1.8481   0.0000   0.0000   0.0000   0.2783
  12.700   0.6684   0.15044   0.14590  -0.0261  0.0785  1.0000  -1.8514   0.0000   0.0000   0.0000   0.2789
  12.800   0.6705   0.15191   0.14738  -0.0265  0.0776  1.0000  -1.8592   0.0000   0.0000   0.0000   0.2793
  12.900   0.6732   0.15335   0.14882  -0.0268  0.0768  1.0000  -1.8723   0.0000   0.0000   0.0000   0.2794
  13.000   0.6765   0.15475   0.15022  -0.0269  0.0760  1.0000  -1.8915   0.0000   0.0000   0.0000   0.2793
  13.100   0.6807   0.15614   0.15161  -0.0268  0.0753  1.0000  -1.9180   0.0000   0.0000   0.0000   0.2789
  13.200   0.6859   0.15752   0.15305  -0.0265  0.0747  1.0000  -1.9508   0.0000   0.0000   0.0000   0.2780
  13.300   0.6935   0.15889   0.15442  -0.0254  0.0739  1.0000  -2.0112   0.0000   0.0000   0.0000   0.2759
  13.400   0.7086   0.16239   0.15795  -0.0213  0.0725  1.0000  -2.1531   0.0000   0.0000   0.0000   0.2692
  13.500   0.7055   0.16415   0.15969  -0.0231  0.0724  1.0000  -2.1032   0.0000   0.0000   0.0000   0.2719
  13.600   0.7022   0.16579   0.16131  -0.0252  0.0722  1.0000  -2.0478   0.0000   0.0000   0.0000   0.2749
  13.700   0.6976   0.16731   0.16282  -0.0277  0.0719  1.0000  -1.9787   0.0000   0.0000   0.0000   0.2786
  13.800   0.6914   0.16873   0.16421  -0.0306  0.0712  1.0000  -1.8934   0.0000   0.0000   0.0000   0.2831
  13.900   0.6862   0.16996   0.16542  -0.0331  0.0698  1.0000  -1.8235   0.0000   0.0000   0.0000   0.2869
  14.000   0.6855   0.17141   0.16687  -0.0345  0.0679  1.0000  -1.7929   0.0000   0.0000   0.0000   0.2890
  14.100   0.6870   0.17281   0.16827  -0.0353  0.0660  1.0000  -1.7884   0.0000   0.0000   0.0000   0.2899
  14.200   0.6899   0.17407   0.16953  -0.0357  0.0642  1.0000  -1.8012   0.0000   0.0000   0.0000   0.2901
  14.300   0.6940   0.17525   0.17071  -0.0357  0.0627  1.0000  -1.8286   0.0000   0.0000   0.0000   0.2897
  14.400   0.6987   0.17654   0.17200  -0.0356  0.0618  1.0000  -1.8596   0.0000   0.0000   0.0000   0.2891
  14.500   0.7047   0.17797   0.17344  -0.0351  0.0610  1.0000  -1.9011   0.0000   0.0000   0.0000   0.2879
  14.600   0.7149   0.17982   0.17531  -0.0336  0.0602  1.0000  -1.9809   0.0000   0.0000   0.0000   0.2849
  14.900   0.7250   0.18736   0.18284  -0.0335  0.0591  1.0000  -1.9973   0.0000   0.0000   0.0000   0.2838
  15.000   0.7241   0.18885   0.18432  -0.0351  0.0589  1.0000  -1.9500   0.0000   0.0000   0.0000   0.2861


