xflr5 v6.55

 Calculated polar for: NACA 0010

 1 1 Reynolds number fixed          Mach number fixed         

 xtrf =   1.000 (top)        1.000 (bottom)
 Mach =   0.200     Re =     0.115 e 6     Ncrit =   9.000

  alpha     CL        CD       CDp       Cm    Top Xtr Bot Xtr   Cpmin    Chinge    XCp    
 ------- -------- --------- --------- -------- ------- ------- -------- --------- ---------
   0.000   0.0000   0.01278   0.00627  -0.0000  1.0000  1.0000  -0.3530   0.0000   0.0000   0.0000   0.7518
   0.100  -0.0054   0.01279   0.00627   0.0023  1.0000  1.0000  -0.3540   0.0000   0.0000   0.0000   0.6878
   0.200  -0.0102   0.01282   0.00630   0.0046  1.0000  1.0000  -0.3553   0.0000   0.0000   0.0000   0.7045
   0.300  -0.0138   0.01288   0.00635   0.0066  1.0000  1.0000  -0.3573   0.0000   0.0000   0.0000   0.7332
   0.400  -0.0084   0.01295   0.00642   0.0070  0.9987  1.0000  -0.3657   0.0000   0.0000   0.0000   1.1008
   0.500   0.0187   0.01303   0.00650   0.0037  0.9937  1.0000  -0.3907   0.0000   0.0000   0.0000   0.0460
   0.600   0.0452   0.01307   0.00656   0.0005  0.9879  1.0000  -0.4171   0.0000   0.0000   0.0000   0.2349
   0.700   0.0725   0.01311   0.00661  -0.0029  0.9824  1.0000  -0.4460   0.0000   0.0000   0.0000   0.2857
   0.800   0.0993   0.01311   0.00664  -0.0060  0.9764  1.0000  -0.4769   0.0000   0.0000   0.0000   0.3073
   0.900   0.1259   0.01309   0.00665  -0.0091  0.9697  1.0000  -0.5107   0.0000   0.0000   0.0000   0.3192
   1.000   0.1562   0.01305   0.00665  -0.0128  0.9648  1.0000  -0.5503   0.0000   0.0000   0.0000   0.3292
   1.100   0.1809   0.01298   0.00662  -0.0154  0.9566  1.0000  -0.5883   0.0000   0.0000   0.0000   0.3325
   1.200   0.2073   0.01289   0.00656  -0.0182  0.9488  1.0000  -0.6297   0.0000   0.0000   0.0000   0.3353
   1.300   0.2306   0.01278   0.00650  -0.0204  0.9396  1.0000  -0.6727   0.0000   0.0000   0.0000   0.3359
   1.400   0.2520   0.01266   0.00641  -0.0221  0.9286  1.0000  -0.7137   0.0000   0.0000   0.0000   0.3353
   1.500   0.2708   0.01255   0.00637  -0.0233  0.9168  1.0000  -0.7540   0.0000   0.0000   0.0000   0.3335
   1.600   0.2884   0.01243   0.00627  -0.0241  0.9040  1.0000  -0.7973   0.0000   0.0000   0.0000   0.3311
   1.700   0.3015   0.01234   0.00619  -0.0241  0.8892  1.0000  -0.8338   0.0000   0.0000   0.0000   0.3274
   1.800   0.3162   0.01222   0.00607  -0.0243  0.8762  1.0000  -0.8737   0.0000   0.0000   0.0000   0.3240
   1.900   0.3254   0.01217   0.00602  -0.0235  0.8590  1.0000  -0.9049   0.0000   0.0000   0.0000   0.3194
   2.000   0.3358   0.01211   0.00595  -0.0228  0.8436  1.0000  -0.9385   0.0000   0.0000   0.0000   0.3152
   2.100   0.3455   0.01206   0.00587  -0.0220  0.8277  1.0000  -0.9770   0.0000   0.0000   0.0000   0.3109
   2.200   0.3540   0.01204   0.00584  -0.0211  0.8101  1.0000  -1.0137   0.0000   0.0000   0.0000   0.3067
   2.300   0.3632   0.01202   0.00576  -0.0202  0.7942  1.0000  -1.0523   0.0000   0.0000   0.0000   0.3026
   2.400   0.3716   0.01202   0.00573  -0.0192  0.7759  1.0000  -1.0897   0.0000   0.0000   0.0000   0.2987
   2.500   0.3802   0.01203   0.00571  -0.0183  0.7579  1.0000  -1.1275   0.0000   0.0000   0.0000   0.2951
   2.600   0.3889   0.01206   0.00565  -0.0174  0.7409  1.0000  -1.1664   0.0000   0.0000   0.0000   0.2915
   2.700   0.3974   0.01210   0.00566  -0.0165  0.7210  1.0000  -1.2044   0.0000   0.0000   0.0000   0.2884
   2.800   0.4060   0.01215   0.00566  -0.0157  0.7022  1.0000  -1.2434   0.0000   0.0000   0.0000   0.2853
   3.000   0.4232   0.01229   0.00566  -0.0140  0.6629  1.0000  -1.3297   0.0000   0.0000   0.0000   0.2797
   3.100   0.4319   0.01237   0.00568  -0.0132  0.6429  1.0000  -1.3773   0.0000   0.0000   0.0000   0.2772
   3.200   0.4404   0.01248   0.00568  -0.0124  0.6232  1.0000  -1.4254   0.0000   0.0000   0.0000   0.2746
   3.300   0.4490   0.01258   0.00572  -0.0116  0.6015  1.0000  -1.4736   0.0000   0.0000   0.0000   0.2724
   3.400   0.4576   0.01269   0.00583  -0.0109  0.5800  1.0000  -1.5179   0.0000   0.0000   0.0000   0.2702
   3.500   0.4662   0.01283   0.00587  -0.0102  0.5585  1.0000  -1.5660   0.0000   0.0000   0.0000   0.2681
   3.600   0.4745   0.01298   0.00590  -0.0094  0.5366  1.0000  -1.6147   0.0000   0.0000   0.0000   0.2660
   3.700   0.4830   0.01312   0.00597  -0.0087  0.5132  1.0000  -1.6640   0.0000   0.0000   0.0000   0.2642
   3.800   0.4915   0.01327   0.00605  -0.0080  0.4895  1.0000  -1.7135   0.0000   0.0000   0.0000   0.2625
   3.900   0.4998   0.01344   0.00612  -0.0073  0.4652  1.0000  -1.7631   0.0000   0.0000   0.0000   0.2607
   4.000   0.5080   0.01364   0.00621  -0.0066  0.4402  1.0000  -1.8126   0.0000   0.0000   0.0000   0.2590
   4.100   0.5161   0.01385   0.00630  -0.0060  0.4146  1.0000  -1.8621   0.0000   0.0000   0.0000   0.2574
   4.200   0.5241   0.01407   0.00641  -0.0053  0.3878  1.0000  -1.9114   0.0000   0.0000   0.0000   0.2559
   4.300   0.5320   0.01432   0.00653  -0.0046  0.3599  1.0000  -1.9604   0.0000   0.0000   0.0000   0.2544
   4.400   0.5398   0.01460   0.00668  -0.0039  0.3310  1.0000  -2.0088   0.0000   0.0000   0.0000   0.2529
   4.500   0.5475   0.01492   0.00685  -0.0033  0.3021  1.0000  -2.0564   0.0000   0.0000   0.0000   0.2515
   4.600   0.5550   0.01527   0.00704  -0.0026  0.2738  1.0000  -2.1028   0.0000   0.0000   0.0000   0.2501
   4.700   0.5624   0.01566   0.00726  -0.0019  0.2471  1.0000  -2.1586   0.0000   0.0000   0.0000   0.2488
   4.800   0.5698   0.01608   0.00751  -0.0013  0.2229  1.0000  -2.2144   0.0000   0.0000   0.0000   0.2475
   4.900   0.5774   0.01650   0.00780  -0.0006  0.2018  1.0000  -2.2700   0.0000   0.0000   0.0000   0.2463
   5.000   0.5852   0.01692   0.00813   0.0000  0.1843  1.0000  -2.3244   0.0000   0.0000   0.0000   0.2451
   5.100   0.5929   0.01740   0.00850   0.0007  0.1702  1.0000  -2.3775   0.0000   0.0000   0.0000   0.2439
   5.200   0.6006   0.01786   0.00884   0.0013  0.1583  1.0000  -2.4328   0.0000   0.0000   0.0000   0.2428
   5.300   0.6092   0.01825   0.00921   0.0019  0.1470  1.0000  -2.4876   0.0000   0.0000   0.0000   0.2418
   5.400   0.6166   0.01878   0.00960   0.0025  0.1380  1.0000  -2.5439   0.0000   0.0000   0.0000   0.2408
   5.500   0.6257   0.01908   0.01002   0.0030  0.1293  1.0000  -2.5946   0.0000   0.0000   0.0000   0.2400
   5.600   0.6340   0.01951   0.01037   0.0036  0.1225  1.0000  -2.6512   0.0000   0.0000   0.0000   0.2391
   5.700   0.6425   0.02011   0.01093   0.0041  0.1170  1.0000  -2.7011   0.0000   0.0000   0.0000   0.2382
   5.800   0.6517   0.02053   0.01139   0.0047  0.1117  1.0000  -2.7540   0.0000   0.0000   0.0000   0.2374
   5.900   0.6606   0.02098   0.01181   0.0052  0.1071  1.0000  -2.8102   0.0000   0.0000   0.0000   0.2367
   6.000   0.6691   0.02185   0.01255   0.0056  0.1030  1.0000  -2.8620   0.0000   0.0000   0.0000   0.2361
   6.100   0.6787   0.02223   0.01304   0.0061  0.0993  1.0000  -2.9128   0.0000   0.0000   0.0000   0.2353
   6.200   0.6879   0.02260   0.01347   0.0066  0.0949  1.0000  -2.9687   0.0000   0.0000   0.0000   0.2347
   6.300   0.6967   0.02298   0.01381   0.0070  0.0908  1.0000  -3.0325   0.0000   0.0000   0.0000   0.2341
   6.400   0.7051   0.02396   0.01465   0.0073  0.0870  1.0000  -3.0875   0.0000   0.0000   0.0000   0.2338
   6.500   0.7146   0.02432   0.01517   0.0079  0.0845  1.0000  -3.1365   0.0000   0.0000   0.0000   0.2331
   6.600   0.7241   0.02489   0.01584   0.0084  0.0821  1.0000  -3.1825   0.0000   0.0000   0.0000   0.2324
   6.700   0.7335   0.02549   0.01651   0.0088  0.0798  1.0000  -3.2297   0.0000   0.0000   0.0000   0.2319
   6.800   0.7427   0.02610   0.01717   0.0093  0.0777  1.0000  -3.2788   0.0000   0.0000   0.0000   0.2313
   6.900   0.7518   0.02676   0.01784   0.0097  0.0759  1.0000  -3.3301   0.0000   0.0000   0.0000   0.2309
   7.000   0.7608   0.02761   0.01868   0.0100  0.0743  1.0000  -3.3793   0.0000   0.0000   0.0000   0.2305
   7.100   0.7692   0.02911   0.02020   0.0103  0.0728  1.0000  -3.4098   0.0000   0.0000   0.0000   0.2302
   7.200   0.7774   0.02998   0.02123   0.0110  0.0719  1.0000  -3.4363   0.0000   0.0000   0.0000   0.2294
   7.300   0.7855   0.03080   0.02225   0.0116  0.0710  1.0000  -3.4608   0.0000   0.0000   0.0000   0.2287
   7.400   0.7931   0.03173   0.02337   0.0123  0.0702  1.0000  -3.4813   0.0000   0.0000   0.0000   0.2279
   7.500   0.8003   0.03264   0.02447   0.0130  0.0690  1.0000  -3.5027   0.0000   0.0000   0.0000   0.2271
   7.600   0.8073   0.03348   0.02548   0.0136  0.0674  1.0000  -3.5294   0.0000   0.0000   0.0000   0.2264
   7.700   0.8146   0.03414   0.02630   0.0142  0.0654  1.0000  -3.5726   0.0000   0.0000   0.0000   0.2258
   7.800   0.8229   0.03456   0.02671   0.0145  0.0633  1.0000  -3.6390   0.0000   0.0000   0.0000   0.2254
   7.900   0.8306   0.03511   0.02722   0.0148  0.0614  1.0000  -3.7146   0.0000   0.0000   0.0000   0.2251
   8.000   0.8367   0.03644   0.02854   0.0151  0.0599  1.0000  -3.7759   0.0000   0.0000   0.0000   0.2248
   8.100   0.8402   0.03853   0.03074   0.0157  0.0592  1.0000  -3.7908   0.0000   0.0000   0.0000   0.2242
   8.200   0.8447   0.03954   0.03199   0.0165  0.0589  1.0000  -3.8172   0.0000   0.0000   0.0000   0.2232
   8.300   0.8485   0.04073   0.03339   0.0174  0.0585  1.0000  -3.8367   0.0000   0.0000   0.0000   0.2223
   8.400   0.8515   0.04204   0.03493   0.0182  0.0582  1.0000  -3.8500   0.0000   0.0000   0.0000   0.2213
   8.500   0.8539   0.04348   0.03656   0.0190  0.0580  1.0000  -3.8581   0.0000   0.0000   0.0000   0.2204
   8.600   0.8555   0.04500   0.03828   0.0197  0.0578  1.0000  -3.8614   0.0000   0.0000   0.0000   0.2195
   8.700   0.8564   0.04660   0.04007   0.0205  0.0576  1.0000  -3.8602   0.0000   0.0000   0.0000   0.2186
   8.800   0.8564   0.04827   0.04191   0.0212  0.0576  1.0000  -3.8549   0.0000   0.0000   0.0000   0.2177
   8.900   0.8557   0.04999   0.04380   0.0219  0.0575  1.0000  -3.8461   0.0000   0.0000   0.0000   0.2168
   9.000   0.8542   0.05176   0.04571   0.0225  0.0576  1.0000  -3.8344   0.0000   0.0000   0.0000   0.2159
   9.100   0.8521   0.05356   0.04766   0.0230  0.0577  1.0000  -3.8202   0.0000   0.0000   0.0000   0.2151
   9.200   0.8493   0.05540   0.04961   0.0236  0.0578  1.0000  -3.8040   0.0000   0.0000   0.0000   0.2144
   9.300   0.8461   0.05726   0.05158   0.0240  0.0579  1.0000  -3.7864   0.0000   0.0000   0.0000   0.2137
   9.400   0.8423   0.05914   0.05356   0.0244  0.0581  1.0000  -3.7679   0.0000   0.0000   0.0000   0.2130
   9.500   0.8382   0.06105   0.05556   0.0247  0.0583  1.0000  -3.7489   0.0000   0.0000   0.0000   0.2124
   9.600   0.8340   0.06301   0.05758   0.0249  0.0585  1.0000  -3.7303   0.0000   0.0000   0.0000   0.2119
   9.700   0.8302   0.06506   0.05967   0.0250  0.0588  1.0000  -3.7137   0.0000   0.0000   0.0000   0.2116
   9.900   0.8255   0.06851   0.06324   0.0255  0.0595  1.0000  -3.6980   0.0000   0.0000   0.0000   0.2106
  10.000   0.8140   0.06963   0.06448   0.0257  0.0601  1.0000  -3.6400   0.0000   0.0000   0.0000   0.2098
  10.100   0.7203   0.08727   0.08243   0.0076  0.0683  1.0000  -2.8000   0.0000   0.0000   0.0000   0.2309
  10.200   0.7157   0.09037   0.08551   0.0059  0.0694  1.0000  -2.7493   0.0000   0.0000   0.0000   0.2332
  10.300   0.7136   0.09275   0.08788   0.0050  0.0702  1.0000  -2.7282   0.0000   0.0000   0.0000   0.2343
  10.400   0.7138   0.09454   0.08966   0.0049  0.0710  1.0000  -2.7333   0.0000   0.0000   0.0000   0.2344
  10.500   0.7170   0.09562   0.09079   0.0058  0.0716  1.0000  -2.7681   0.0000   0.0000   0.0000   0.2330
  10.600   0.1652   0.01779   0.01427   0.0302  0.1367  1.0000  -0.7867   0.0000   0.0000   0.0000   0.0789
  10.700   0.1652   0.01700   0.01347   0.0310  0.1215  1.0000  -0.8302   0.0000   0.0000   0.0000   0.0737
  10.800   0.1653   0.01752   0.01397   0.0312  0.1213  1.0000  -0.8265   0.0000   0.0000   0.0000   0.0730
  10.900   0.1676   0.01802   0.01446   0.0316  0.1209  1.0000  -0.8348   0.0000   0.0000   0.0000   0.0729
  11.000   0.1767   0.01861   0.01504   0.0329  0.1200  1.0000  -0.8827   0.0000   0.0000   0.0000   0.0740
  11.300   0.6534   0.12962   0.12462  -0.0182  0.1113  1.0000  -1.8174   0.0000   0.0000   0.0000   0.2691
  11.400   0.6546   0.13117   0.12617  -0.0187  0.1098  1.0000  -1.8200   0.0000   0.0000   0.0000   0.2697
  11.500   0.6569   0.13266   0.12765  -0.0190  0.1085  1.0000  -1.8304   0.0000   0.0000   0.0000   0.2699
  11.600   0.6602   0.13408   0.12907  -0.0190  0.1073  1.0000  -1.8489   0.0000   0.0000   0.0000   0.2697
  11.700   0.6647   0.13546   0.13046  -0.0187  0.1062  1.0000  -1.8769   0.0000   0.0000   0.0000   0.2690
  11.800   0.6707   0.13685   0.13186  -0.0181  0.1053  1.0000  -1.9157   0.0000   0.0000   0.0000   0.2678
  11.900   0.6785   0.13835   0.13337  -0.0171  0.1045  1.0000  -1.9680   0.0000   0.0000   0.0000   0.2659
  12.000   0.6889   0.14020   0.13524  -0.0153  0.1037  1.0000  -2.0401   0.0000   0.0000   0.0000   0.2629
  12.100   0.7020   0.14388   0.13894  -0.0125  0.1028  1.0000  -2.1269   0.0000   0.0000   0.0000   0.2585
  12.200   0.6966   0.14571   0.14074  -0.0146  0.1026  1.0000  -2.0751   0.0000   0.0000   0.0000   0.2615
  12.300   0.6904   0.14737   0.14238  -0.0170  0.1024  1.0000  -2.0161   0.0000   0.0000   0.0000   0.2650
  12.400   0.6806   0.14880   0.14378  -0.0202  0.1019  1.0000  -1.9295   0.0000   0.0000   0.0000   0.2700
  12.500   0.6674   0.15001   0.14494  -0.0243  0.1001  1.0000  -1.8165   0.0000   0.0000   0.0000   0.2766
  12.600   0.6638   0.15147   0.14639  -0.0260  0.0982  1.0000  -1.7782   0.0000   0.0000   0.0000   0.2792
  12.700   0.6635   0.15299   0.14790  -0.0269  0.0966  1.0000  -1.7653   0.0000   0.0000   0.0000   0.2806
  12.800   0.6645   0.15449   0.14940  -0.0276  0.0952  1.0000  -1.7619   0.0000   0.0000   0.0000   0.2814
  12.900   0.6661   0.15597   0.15088  -0.0281  0.0940  1.0000  -1.7645   0.0000   0.0000   0.0000   0.2820
  13.000   0.6685   0.15743   0.15233  -0.0285  0.0928  1.0000  -1.7723   0.0000   0.0000   0.0000   0.2823
  13.100   0.6715   0.15888   0.15379  -0.0287  0.0918  1.0000  -1.7854   0.0000   0.0000   0.0000   0.2824
  13.200   0.6753   0.16035   0.15526  -0.0288  0.0908  1.0000  -1.8050   0.0000   0.0000   0.0000   0.2822
  13.300   0.6805   0.16189   0.15681  -0.0287  0.0899  1.0000  -1.8336   0.0000   0.0000   0.0000   0.2815
  13.400   0.6873   0.16355   0.15853  -0.0281  0.0891  1.0000  -1.8717   0.0000   0.0000   0.0000   0.2802
  13.500   0.6961   0.16548   0.16048  -0.0270  0.0883  1.0000  -1.9282   0.0000   0.0000   0.0000   0.2780
  13.600   0.7091   0.16850   0.16353  -0.0246  0.0875  1.0000  -2.0177   0.0000   0.0000   0.0000   0.2739
  13.700   0.7135   0.17200   0.16701  -0.0243  0.0870  1.0000  -2.0316   0.0000   0.0000   0.0000   0.2732
  13.800   0.7103   0.17335   0.16835  -0.0261  0.0869  1.0000  -1.9866   0.0000   0.0000   0.0000   0.2758
  13.900   0.7058   0.17451   0.16949  -0.0282  0.0866  1.0000  -1.9311   0.0000   0.0000   0.0000   0.2790
  14.000   0.6998   0.17542   0.17037  -0.0308  0.0862  1.0000  -1.8631   0.0000   0.0000   0.0000   0.2829
  14.100   0.6923   0.17592   0.17085  -0.0335  0.0854  1.0000  -1.7892   0.0000   0.0000   0.0000   0.2871
  14.200   0.6883   0.17678   0.17169  -0.0356  0.0839  1.0000  -1.7376   0.0000   0.0000   0.0000   0.2903
  14.300   0.6883   0.17809   0.17299  -0.0368  0.0822  1.0000  -1.7160   0.0000   0.0000   0.0000   0.2919
  14.400   0.6898   0.17948   0.17437  -0.0376  0.0805  1.0000  -1.7089   0.0000   0.0000   0.0000   0.2929
  14.500   0.6923   0.18082   0.17572  -0.0381  0.0787  1.0000  -1.7127   0.0000   0.0000   0.0000   0.2933
  14.600   0.6962   0.18210   0.17700  -0.0383  0.0769  1.0000  -1.7324   0.0000   0.0000   0.0000   0.2931
  14.700   0.7042   0.18346   0.17838  -0.0373  0.0748  1.0000  -1.7950   0.0000   0.0000   0.0000   0.2910
  14.800   0.7297   0.18944   0.18441  -0.0316  0.0725  1.0000  -1.9964   0.0000   0.0000   0.0000   0.2813
  14.900   0.7284   0.19081   0.18577  -0.0332  0.0724  1.0000  -1.9557   0.0000   0.0000   0.0000   0.2834
  15.000   0.7263   0.19201   0.18695  -0.0350  0.0722  1.0000  -1.9080   0.0000   0.0000   0.0000   0.2860


