xflr5 v6.55

 Calculated polar for: NACA 0010

 1 1 Reynolds number fixed          Mach number fixed         

 xtrf =   1.000 (top)        1.000 (bottom)
 Mach =   0.200     Re =     0.070 e 6     Ncrit =   9.000

  alpha     CL        CD       CDp       Cm    Top Xtr Bot Xtr   Cpmin    Chinge    XCp    
 ------- -------- --------- --------- -------- ------- ------- -------- --------- ---------
   0.000   0.0000   0.01541   0.00695  -0.0000  1.0000  1.0000  -0.3534   0.0000   0.0000   0.0000   0.9061
   0.100  -0.0004   0.01542   0.00696   0.0016  1.0000  1.0000  -0.3578   0.0000   0.0000   0.0000   3.9670
   0.200  -0.0007   0.01544   0.00698   0.0032  1.0000  1.0000  -0.3623   0.0000   0.0000   0.0000   4.6501
   0.300  -0.0008   0.01548   0.00701   0.0048  1.0000  1.0000  -0.3670   0.0000   0.0000   0.0000   6.5461
   0.400  -0.0004   0.01554   0.00706   0.0062  1.0000  1.0000  -0.3723   0.0000   0.0000   0.0000  14.8580
   0.500   0.0002   0.01561   0.00712   0.0076  1.0000  1.0000  -0.3781   0.0000   0.0000   0.0000  -31.4640
   0.600   0.0013   0.01570   0.00720   0.0089  1.0000  1.0000  -0.3839   0.0000   0.0000   0.0000  -7.0122
   0.700   0.0028   0.01580   0.00729   0.0101  1.0000  1.0000  -0.3901   0.0000   0.0000   0.0000  -3.4958
   0.800   0.0048   0.01592   0.00740   0.0112  1.0000  1.0000  -0.3973   0.0000   0.0000   0.0000  -2.1211
   0.900   0.0074   0.01605   0.00753   0.0121  1.0000  1.0000  -0.4051   0.0000   0.0000   0.0000  -1.4195
   1.000   0.0105   0.01621   0.00768   0.0130  1.0000  1.0000  -0.4132   0.0000   0.0000   0.0000  -1.0093
   1.100   0.0140   0.01638   0.00785   0.0137  1.0000  1.0000  -0.4215   0.0000   0.0000   0.0000  -0.7469
   1.200   0.0179   0.01656   0.00803   0.0143  1.0000  1.0000  -0.4312   0.0000   0.0000   0.0000  -0.5676
   1.300   0.0269   0.01678   0.00825   0.0139  0.9985  1.0000  -0.4453   0.0000   0.0000   0.0000  -0.2820
   1.400   0.0590   0.01704   0.00857   0.0094  0.9897  1.0000  -0.4820   0.0000   0.0000   0.0000   0.0830
   1.500   0.0919   0.01728   0.00886   0.0049  0.9810  1.0000  -0.5223   0.0000   0.0000   0.0000   0.1914
   1.600   0.1221   0.01743   0.00908   0.0009  0.9702  1.0000  -0.5648   0.0000   0.0000   0.0000   0.2379
   1.700   0.1557   0.01756   0.00929  -0.0036  0.9608  1.0000  -0.6130   0.0000   0.0000   0.0000   0.2688
   1.800   0.1875   0.01761   0.00942  -0.0076  0.9493  1.0000  -0.6659   0.0000   0.0000   0.0000   0.2865
   1.900   0.2207   0.01762   0.00952  -0.0117  0.9384  1.0000  -0.7217   0.0000   0.0000   0.0000   0.2994
   2.000   0.2588   0.01751   0.00959  -0.0165  0.9273  1.0000  -0.7939   0.0000   0.0000   0.0000   0.3105
   2.100   0.2866   0.01740   0.00957  -0.0193  0.9137  1.0000  -0.8527   0.0000   0.0000   0.0000   0.3141
   2.200   0.3210   0.01715   0.00944  -0.0230  0.9018  1.0000  -0.9239   0.0000   0.0000   0.0000   0.3184
   2.300   0.3390   0.01704   0.00939  -0.0237  0.8852  1.0000  -0.9747   0.0000   0.0000   0.0000   0.3168
   2.400   0.3605   0.01686   0.00927  -0.0248  0.8700  1.0000  -1.0361   0.0000   0.0000   0.0000   0.3157
   2.500   0.3789   0.01666   0.00912  -0.0252  0.8540  1.0000  -1.0930   0.0000   0.0000   0.0000   0.3134
   2.600   0.3903   0.01658   0.00907  -0.0245  0.8358  1.0000  -1.1362   0.0000   0.0000   0.0000   0.3097
   2.700   0.4036   0.01645   0.00895  -0.0239  0.8191  1.0000  -1.1842   0.0000   0.0000   0.0000   0.3061
   2.800   0.4145   0.01635   0.00884  -0.0229  0.8012  1.0000  -1.2279   0.0000   0.0000   0.0000   0.3021
   2.900   0.4230   0.01632   0.00882  -0.0217  0.7817  1.0000  -1.2667   0.0000   0.0000   0.0000   0.2981
   3.000   0.4326   0.01627   0.00874  -0.0205  0.7636  1.0000  -1.3109   0.0000   0.0000   0.0000   0.2941
   3.100   0.4415   0.01623   0.00866  -0.0192  0.7443  1.0000  -1.3594   0.0000   0.0000   0.0000   0.2901
   3.200   0.4493   0.01626   0.00868  -0.0179  0.7232  1.0000  -1.4049   0.0000   0.0000   0.0000   0.2864
   3.300   0.4576   0.01628   0.00865  -0.0166  0.7027  1.0000  -1.4525   0.0000   0.0000   0.0000   0.2828
   3.400   0.4662   0.01630   0.00865  -0.0153  0.6827  1.0000  -1.4980   0.0000   0.0000   0.0000   0.2792
   3.500   0.4738   0.01638   0.00870  -0.0140  0.6596  1.0000  -1.5430   0.0000   0.0000   0.0000   0.2760
   3.600   0.4815   0.01647   0.00873  -0.0128  0.6363  1.0000  -1.5894   0.0000   0.0000   0.0000   0.2730
   3.700   0.4894   0.01658   0.00875  -0.0116  0.6130  1.0000  -1.6368   0.0000   0.0000   0.0000   0.2700
   3.800   0.4973   0.01670   0.00877  -0.0104  0.5893  1.0000  -1.6847   0.0000   0.0000   0.0000   0.2671
   3.900   0.5050   0.01685   0.00878  -0.0092  0.5648  1.0000  -1.7327   0.0000   0.0000   0.0000   0.2644
   4.000   0.5125   0.01701   0.00886  -0.0081  0.5385  1.0000  -1.7795   0.0000   0.0000   0.0000   0.2618
   4.100   0.5198   0.01721   0.00894  -0.0070  0.5109  1.0000  -1.8260   0.0000   0.0000   0.0000   0.2594
   4.200   0.5271   0.01743   0.00903  -0.0059  0.4825  1.0000  -1.8722   0.0000   0.0000   0.0000   0.2570
   4.300   0.5343   0.01769   0.00915  -0.0048  0.4534  1.0000  -1.9179   0.0000   0.0000   0.0000   0.2548
   4.400   0.5413   0.01800   0.00928  -0.0037  0.4235  1.0000  -1.9628   0.0000   0.0000   0.0000   0.2527
   4.500   0.5482   0.01834   0.00945  -0.0027  0.3922  1.0000  -2.0062   0.0000   0.0000   0.0000   0.2506
   4.600   0.5551   0.01872   0.00969  -0.0018  0.3604  1.0000  -2.0482   0.0000   0.0000   0.0000   0.2488
   4.700   0.5621   0.01916   0.00996  -0.0009  0.3300  1.0000  -2.0890   0.0000   0.0000   0.0000   0.2470
   4.800   0.5692   0.01963   0.01025   0.0000  0.3017  1.0000  -2.1363   0.0000   0.0000   0.0000   0.2454
   4.900   0.5764   0.02014   0.01059   0.0008  0.2765  1.0000  -2.1865   0.0000   0.0000   0.0000   0.2439
   5.000   0.5842   0.02069   0.01100   0.0016  0.2549  1.0000  -2.2358   0.0000   0.0000   0.0000   0.2426
   5.100   0.5921   0.02127   0.01142   0.0023  0.2365  1.0000  -2.2858   0.0000   0.0000   0.0000   0.2414
   5.200   0.5999   0.02183   0.01180   0.0029  0.2203  1.0000  -2.3384   0.0000   0.0000   0.0000   0.2403
   5.300   0.6083   0.02229   0.01227   0.0035  0.2046  1.0000  -2.3873   0.0000   0.0000   0.0000   0.2392
   5.400   0.6169   0.02292   0.01280   0.0041  0.1928  1.0000  -2.4375   0.0000   0.0000   0.0000   0.2383
   5.500   0.6261   0.02348   0.01333   0.0047  0.1824  1.0000  -2.4864   0.0000   0.0000   0.0000   0.2375
   5.600   0.6353   0.02426   0.01408   0.0051  0.1741  1.0000  -2.5293   0.0000   0.0000   0.0000   0.2368
   5.700   0.6445   0.02478   0.01469   0.0057  0.1652  1.0000  -2.5740   0.0000   0.0000   0.0000   0.2360
   5.800   0.6533   0.02547   0.01518   0.0061  0.1575  1.0000  -2.6311   0.0000   0.0000   0.0000   0.2354
   5.900   0.6622   0.02601   0.01587   0.0066  0.1499  1.0000  -2.6738   0.0000   0.0000   0.0000   0.2346
   6.000   0.6711   0.02652   0.01638   0.0071  0.1431  1.0000  -2.7256   0.0000   0.0000   0.0000   0.2339
   6.100   0.6807   0.02745   0.01715   0.0074  0.1382  1.0000  -2.7784   0.0000   0.0000   0.0000   0.2336
   6.200   0.6901   0.02826   0.01812   0.0080  0.1344  1.0000  -2.8119   0.0000   0.0000   0.0000   0.2329
   6.300   0.6995   0.02904   0.01906   0.0085  0.1305  1.0000  -2.8468   0.0000   0.0000   0.0000   0.2322
   6.400   0.7088   0.02983   0.01994   0.0090  0.1270  1.0000  -2.8851   0.0000   0.0000   0.0000   0.2316
   6.500   0.7180   0.03063   0.02076   0.0094  0.1238  1.0000  -2.9282   0.0000   0.0000   0.0000   0.2311
   6.600   0.7270   0.03172   0.02175   0.0097  0.1204  1.0000  -2.9780   0.0000   0.0000   0.0000   0.2309
   6.700   0.7346   0.03264   0.02287   0.0103  0.1173  1.0000  -3.0032   0.0000   0.0000   0.0000   0.2301
   6.800   0.7421   0.03334   0.02379   0.0110  0.1134  1.0000  -3.0322   0.0000   0.0000   0.0000   0.2292
   6.900   0.7502   0.03397   0.02449   0.0115  0.1094  1.0000  -3.0765   0.0000   0.0000   0.0000   0.2286
   7.000   0.7586   0.03466   0.02516   0.0119  0.1062  1.0000  -3.1277   0.0000   0.0000   0.0000   0.2282
   7.100   0.7666   0.03578   0.02628   0.0123  0.1043  1.0000  -3.1672   0.0000   0.0000   0.0000   0.2278
   7.200   0.7738   0.03752   0.02803   0.0126  0.1028  1.0000  -3.1908   0.0000   0.0000   0.0000   0.2275
   7.300   0.7797   0.03860   0.02939   0.0134  0.1019  1.0000  -3.1975   0.0000   0.0000   0.0000   0.2266
   7.400   0.7851   0.03985   0.03089   0.0141  0.1011  1.0000  -3.2008   0.0000   0.0000   0.0000   0.2257
   7.500   0.7901   0.04120   0.03249   0.0149  0.1004  1.0000  -3.2013   0.0000   0.0000   0.0000   0.2248
   7.600   0.7945   0.04265   0.03416   0.0156  0.0999  1.0000  -3.1990   0.0000   0.0000   0.0000   0.2240
   7.700   0.7982   0.04418   0.03591   0.0163  0.0995  1.0000  -3.1940   0.0000   0.0000   0.0000   0.2232
   7.800   0.8014   0.04578   0.03772   0.0169  0.0992  1.0000  -3.1862   0.0000   0.0000   0.0000   0.2224
   7.900   0.8038   0.04746   0.03959   0.0176  0.0991  1.0000  -3.1758   0.0000   0.0000   0.0000   0.2216
   8.000   0.8057   0.04919   0.04151   0.0181  0.0991  1.0000  -3.1631   0.0000   0.0000   0.0000   0.2209
   8.100   0.8070   0.05099   0.04347   0.0187  0.0993  1.0000  -3.1485   0.0000   0.0000   0.0000   0.2202
   8.200   0.8077   0.05285   0.04548   0.0192  0.0995  1.0000  -3.1432   0.0000   0.0000   0.0000   0.2196
   8.300   0.8081   0.05475   0.04752   0.0196  0.0999  1.0000  -3.1381   0.0000   0.0000   0.0000   0.2190
   8.400   0.8081   0.05668   0.04958   0.0200  0.1003  1.0000  -3.1324   0.0000   0.0000   0.0000   0.2185
   8.500   0.8077   0.05864   0.05165   0.0203  0.1006  1.0000  -3.1253   0.0000   0.0000   0.0000   0.2181
   8.600   0.8065   0.06062   0.05380   0.0205  0.1009  1.0000  -3.1107   0.0000   0.0000   0.0000   0.2176
   8.700   0.8046   0.06260   0.05588   0.0208  0.1011  1.0000  -3.0972   0.0000   0.0000   0.0000   0.2173
   8.800   0.8022   0.06459   0.05797   0.0209  0.1012  1.0000  -3.0820   0.0000   0.0000   0.0000   0.2170
   8.900   0.7991   0.06661   0.06007   0.0210  0.1014  1.0000  -3.0645   0.0000   0.0000   0.0000   0.2167
   9.000   0.7956   0.06865   0.06218   0.0210  0.1016  1.0000  -3.0458   0.0000   0.0000   0.0000   0.2165
   9.100   0.7918   0.07071   0.06430   0.0209  0.1017  1.0000  -3.0264   0.0000   0.0000   0.0000   0.2164
   9.200   0.7879   0.07278   0.06643   0.0208  0.1019  1.0000  -3.0067   0.0000   0.0000   0.0000   0.2164
   9.300   0.7840   0.07487   0.06856   0.0205  0.1021  1.0000  -2.9871   0.0000   0.0000   0.0000   0.2165
   9.400   0.7802   0.07699   0.07071   0.0203  0.1022  1.0000  -2.9681   0.0000   0.0000   0.0000   0.2166
   9.500   0.7764   0.07908   0.07283   0.0201  0.1024  1.0000  -2.9500   0.0000   0.0000   0.0000   0.2166
   9.600   0.7729   0.08119   0.07496   0.0199  0.1026  1.0000  -2.9335   0.0000   0.0000   0.0000   0.2167
   9.700   0.7702   0.08339   0.07717   0.0196  0.1028  1.0000  -2.9195   0.0000   0.0000   0.0000   0.2169
   9.900   0.6554   0.11595   0.10977  -0.0151  0.2216  1.0000  -1.7315   0.0000   0.0000   0.0000   0.2659
  10.000   0.6721   0.11901   0.11288  -0.0135  0.2203  1.0000  -1.7686   0.0000   0.0000   0.0000   0.2630
  10.100   0.6823   0.12259   0.11647  -0.0127  0.2193  1.0000  -1.7971   0.0000   0.0000   0.0000   0.2617
  10.200   0.6416   0.12131   0.11504  -0.0182  0.2167  1.0000  -1.6586   0.0000   0.0000   0.0000   0.2709
  10.300   0.6286   0.12188   0.11556  -0.0202  0.2116  1.0000  -1.6126   0.0000   0.0000   0.0000   0.2746
  10.400   0.6283   0.12330   0.11696  -0.0207  0.2087  1.0000  -1.6027   0.0000   0.0000   0.0000   0.2753
  10.500   0.6304   0.12479   0.11846  -0.0209  0.2062  1.0000  -1.6004   0.0000   0.0000   0.0000   0.2755
  10.600   0.6348   0.12636   0.12003  -0.0209  0.2039  1.0000  -1.6051   0.0000   0.0000   0.0000   0.2751
  10.700   0.6421   0.12811   0.12179  -0.0204  0.2019  1.0000  -1.6332   0.0000   0.0000   0.0000   0.2739
  10.800   0.6830   0.13361   0.12740  -0.0151  0.1974  1.0000  -1.8109   0.0000   0.0000   0.0000   0.2645
  10.900   0.6717   0.13446   0.12820  -0.0173  0.1970  1.0000  -1.7572   0.0000   0.0000   0.0000   0.2679
  11.000   0.6588   0.13504   0.12873  -0.0196  0.1962  1.0000  -1.6971   0.0000   0.0000   0.0000   0.2717
  11.100   0.6447   0.13536   0.12900  -0.0220  0.1945  1.0000  -1.6321   0.0000   0.0000   0.0000   0.2759
  11.200   0.6366   0.13608   0.12969  -0.0236  0.1910  1.0000  -1.5944   0.0000   0.0000   0.0000   0.2787
  11.300   0.6361   0.13727   0.13087  -0.0241  0.1870  1.0000  -1.5912   0.0000   0.0000   0.0000   0.2795
  11.400   0.6441   0.13862   0.13224  -0.0234  0.1820  1.0000  -1.6313   0.0000   0.0000   0.0000   0.2778
  11.500   0.6787   0.14357   0.13726  -0.0186  0.1761  1.0000  -1.7941   0.0000   0.0000   0.0000   0.2691
  11.600   0.6660   0.14398   0.13763  -0.0211  0.1754  1.0000  -1.7303   0.0000   0.0000   0.0000   0.2731
  11.700   0.6536   0.14432   0.13791  -0.0235  0.1740  1.0000  -1.6676   0.0000   0.0000   0.0000   0.2772
  11.800   0.6456   0.14497   0.13854  -0.0253  0.1711  1.0000  -1.6254   0.0000   0.0000   0.0000   0.2802
  11.900   0.6441   0.14609   0.13964  -0.0261  0.1675  1.0000  -1.6155   0.0000   0.0000   0.0000   0.2814
  12.000   0.6469   0.14746   0.14101  -0.0262  0.1642  1.0000  -1.6264   0.0000   0.0000   0.0000   0.2814
  12.100   0.6520   0.14904   0.14261  -0.0261  0.1619  1.0000  -1.6471   0.0000   0.0000   0.0000   0.2809
  12.200   0.6604   0.15097   0.14455  -0.0255  0.1599  1.0000  -1.6843   0.0000   0.0000   0.0000   0.2793
  12.300   0.6770   0.15403   0.14765  -0.0236  0.1580  1.0000  -1.7599   0.0000   0.0000   0.0000   0.2757
  12.400   0.6987   0.15961   0.15327  -0.0210  0.1565  1.0000  -1.8531   0.0000   0.0000   0.0000   0.2710
  12.500   0.6887   0.15999   0.15360  -0.0233  0.1562  1.0000  -1.7966   0.0000   0.0000   0.0000   0.2745
  12.600   0.6767   0.15995   0.15352  -0.0258  0.1555  1.0000  -1.7305   0.0000   0.0000   0.0000   0.2786
  12.700   0.6641   0.15965   0.15318  -0.0283  0.1539  1.0000  -1.6624   0.0000   0.0000   0.0000   0.2830
  12.800   0.6583   0.16018   0.15368  -0.0299  0.1514  1.0000  -1.6277   0.0000   0.0000   0.0000   0.2855
  12.900   0.6577   0.16133   0.15483  -0.0307  0.1489  1.0000  -1.6178   0.0000   0.0000   0.0000   0.2867
  13.000   0.6592   0.16269   0.15618  -0.0312  0.1467  1.0000  -1.6185   0.0000   0.0000   0.0000   0.2872
  13.100   0.6621   0.16415   0.15764  -0.0314  0.1447  1.0000  -1.6266   0.0000   0.0000   0.0000   0.2874
  13.200   0.6664   0.16575   0.15924  -0.0315  0.1428  1.0000  -1.6430   0.0000   0.0000   0.0000   0.2871
  13.300   0.6731   0.16766   0.16117  -0.0312  0.1411  1.0000  -1.6715   0.0000   0.0000   0.0000   0.2861
  13.400   0.6851   0.17049   0.16403  -0.0302  0.1394  1.0000  -1.7253   0.0000   0.0000   0.0000   0.2838
  13.500   0.7162   0.17837   0.17203  -0.0262  0.1376  1.0000  -1.8653   0.0000   0.0000   0.0000   0.2764
  13.600   0.7091   0.17869   0.17232  -0.0281  0.1374  1.0000  -1.8181   0.0000   0.0000   0.0000   0.2794
  13.700   0.7009   0.17869   0.17228  -0.0303  0.1370  1.0000  -1.7658   0.0000   0.0000   0.0000   0.2827
  13.800   0.6915   0.17831   0.17187  -0.0325  0.1364  1.0000  -1.7090   0.0000   0.0000   0.0000   0.2864
  13.900   0.6828   0.17779   0.17126  -0.0346  0.1351  1.0000  -1.6578   0.0000   0.0000   0.0000   0.2898
  14.000   0.6792   0.17822   0.17166  -0.0361  0.1331  1.0000  -1.6275   0.0000   0.0000   0.0000   0.2921
  14.100   0.6794   0.17931   0.17275  -0.0370  0.1310  1.0000  -1.6167   0.0000   0.0000   0.0000   0.2933
  14.200   0.6811   0.18062   0.17406  -0.0376  0.1291  1.0000  -1.6145   0.0000   0.0000   0.0000   0.2940
  14.300   0.6837   0.18203   0.17553  -0.0381  0.1273  1.0000  -1.6150   0.0000   0.0000   0.0000   0.2944
  14.400   0.6870   0.18352   0.17702  -0.0384  0.1257  1.0000  -1.6229   0.0000   0.0000   0.0000   0.2945
  14.500   0.6914   0.18516   0.17867  -0.0385  0.1242  1.0000  -1.6370   0.0000   0.0000   0.0000   0.2942
  14.600   0.6973   0.18713   0.18065  -0.0384  0.1227  1.0000  -1.6606   0.0000   0.0000   0.0000   0.2935
  14.700   0.7072   0.19012   0.18367  -0.0376  0.1214  1.0000  -1.7039   0.0000   0.0000   0.0000   0.2916
  14.800   0.7370   0.19974   0.19335  -0.0338  0.1196  1.0000  -1.8383   0.0000   0.0000   0.0000   0.2844
  14.900   0.7319   0.19986   0.19344  -0.0356  0.1195  1.0000  -1.7950   0.0000   0.0000   0.0000   0.2871
  15.000   0.7260   0.19965   0.19320  -0.0376  0.1192  1.0000  -1.7482   0.0000   0.0000   0.0000   0.2901


