xflr5 v6.55

 Calculated polar for: NACA 0010

 1 1 Reynolds number fixed          Mach number fixed         

 xtrf =   1.000 (top)        1.000 (bottom)
 Mach =   0.200     Re =     0.130 e 6     Ncrit =   9.000

  alpha     CL        CD       CDp       Cm    Top Xtr Bot Xtr   Cpmin    Chinge    XCp    
 ------- -------- --------- --------- -------- ------- ------- -------- --------- ---------
   0.000   0.0000   0.01224   0.00613  -0.0000  1.0000  1.0000  -0.3529   0.0000   0.0000   0.0000   0.4902
   0.100  -0.0073   0.01225   0.00614   0.0026  1.0000  1.0000  -0.3532   0.0000   0.0000   0.0000   0.6106
   0.200  -0.0136   0.01229   0.00618   0.0050  1.0000  1.0000  -0.3528   0.0000   0.0000   0.0000   0.6240
   0.300   0.0093   0.01233   0.00622   0.0024  0.9958  1.0000  -0.3733   0.0000   0.0000   0.0000  -0.0217
   0.400   0.0351   0.01235   0.00625  -0.0006  0.9912  1.0000  -0.3976   0.0000   0.0000   0.0000   0.2644
   0.500   0.0607   0.01236   0.00626  -0.0036  0.9855  1.0000  -0.4237   0.0000   0.0000   0.0000   0.3067
   0.600   0.0878   0.01236   0.00628  -0.0069  0.9810  1.0000  -0.4527   0.0000   0.0000   0.0000   0.3255
   0.700   0.1126   0.01232   0.00626  -0.0096  0.9745  1.0000  -0.4820   0.0000   0.0000   0.0000   0.3328
   0.800   0.1393   0.01227   0.00624  -0.0127  0.9687  1.0000  -0.5162   0.0000   0.0000   0.0000   0.3386
   0.900   0.1676   0.01220   0.00619  -0.0160  0.9641  1.0000  -0.5541   0.0000   0.0000   0.0000   0.3432
   1.000   0.1887   0.01211   0.00614  -0.0179  0.9544  1.0000  -0.5882   0.0000   0.0000   0.0000   0.3425
   1.100   0.2134   0.01200   0.00606  -0.0204  0.9468  1.0000  -0.6272   0.0000   0.0000   0.0000   0.3432
   1.200   0.2320   0.01191   0.00599  -0.0217  0.9356  1.0000  -0.6641   0.0000   0.0000   0.0000   0.3411
   1.300   0.2527   0.01178   0.00589  -0.0233  0.9254  1.0000  -0.7043   0.0000   0.0000   0.0000   0.3397
   1.400   0.2670   0.01170   0.00585  -0.0236  0.9114  1.0000  -0.7364   0.0000   0.0000   0.0000   0.3361
   1.500   0.2834   0.01158   0.00574  -0.0243  0.8994  1.0000  -0.7772   0.0000   0.0000   0.0000   0.3331
   1.600   0.2940   0.01151   0.00567  -0.0238  0.8836  1.0000  -0.8098   0.0000   0.0000   0.0000   0.3284
   1.700   0.3052   0.01143   0.00559  -0.0234  0.8688  1.0000  -0.8438   0.0000   0.0000   0.0000   0.3241
   1.800   0.3158   0.01136   0.00549  -0.0228  0.8538  1.0000  -0.8772   0.0000   0.0000   0.0000   0.3196
   1.900   0.3247   0.01132   0.00545  -0.0220  0.8370  1.0000  -0.9080   0.0000   0.0000   0.0000   0.3151
   2.000   0.3341   0.01128   0.00536  -0.0212  0.8216  1.0000  -0.9401   0.0000   0.0000   0.0000   0.3107
   2.100   0.3426   0.01126   0.00532  -0.0203  0.8042  1.0000  -0.9766   0.0000   0.0000   0.0000   0.3065
   2.200   0.3513   0.01126   0.00528  -0.0195  0.7872  1.0000  -1.0137   0.0000   0.0000   0.0000   0.3025
   2.300   0.3601   0.01127   0.00521  -0.0185  0.7707  1.0000  -1.0516   0.0000   0.0000   0.0000   0.2985
   2.400   0.3686   0.01129   0.00521  -0.0178  0.7519  1.0000  -1.0890   0.0000   0.0000   0.0000   0.2951
   2.500   0.3774   0.01132   0.00518  -0.0169  0.7343  1.0000  -1.1272   0.0000   0.0000   0.0000   0.2918
   2.600   0.3861   0.01137   0.00515  -0.0161  0.7158  1.0000  -1.1658   0.0000   0.0000   0.0000   0.2885
   2.700   0.3948   0.01142   0.00516  -0.0154  0.6966  1.0000  -1.2045   0.0000   0.0000   0.0000   0.2857
   2.800   0.4036   0.01149   0.00515  -0.0146  0.6781  1.0000  -1.2438   0.0000   0.0000   0.0000   0.2829
   2.900   0.4124   0.01157   0.00515  -0.0138  0.6583  1.0000  -1.2840   0.0000   0.0000   0.0000   0.2803
   3.000   0.4212   0.01165   0.00518  -0.0132  0.6382  1.0000  -1.3316   0.0000   0.0000   0.0000   0.2779
   3.100   0.4300   0.01175   0.00519  -0.0125  0.6186  1.0000  -1.3797   0.0000   0.0000   0.0000   0.2755
   3.200   0.4387   0.01186   0.00521  -0.0117  0.5981  1.0000  -1.4280   0.0000   0.0000   0.0000   0.2733
   3.300   0.4475   0.01197   0.00526  -0.0111  0.5767  1.0000  -1.4767   0.0000   0.0000   0.0000   0.2713
   3.400   0.4562   0.01209   0.00536  -0.0105  0.5556  1.0000  -1.5214   0.0000   0.0000   0.0000   0.2693
   3.500   0.4647   0.01224   0.00539  -0.0098  0.5345  1.0000  -1.5698   0.0000   0.0000   0.0000   0.2673
   3.600   0.4734   0.01237   0.00545  -0.0091  0.5120  1.0000  -1.6190   0.0000   0.0000   0.0000   0.2655
   3.700   0.4820   0.01251   0.00552  -0.0085  0.4890  1.0000  -1.6688   0.0000   0.0000   0.0000   0.2638
   3.800   0.4906   0.01268   0.00559  -0.0079  0.4656  1.0000  -1.7187   0.0000   0.0000   0.0000   0.2621
   3.900   0.4990   0.01285   0.00567  -0.0072  0.4420  1.0000  -1.7687   0.0000   0.0000   0.0000   0.2605
   4.000   0.5073   0.01305   0.00575  -0.0066  0.4176  1.0000  -1.8188   0.0000   0.0000   0.0000   0.2590
   4.100   0.5155   0.01326   0.00584  -0.0060  0.3922  1.0000  -1.8688   0.0000   0.0000   0.0000   0.2575
   4.200   0.5236   0.01349   0.00595  -0.0054  0.3658  1.0000  -1.9187   0.0000   0.0000   0.0000   0.2560
   4.300   0.5317   0.01373   0.00608  -0.0047  0.3385  1.0000  -1.9684   0.0000   0.0000   0.0000   0.2546
   4.400   0.5397   0.01400   0.00622  -0.0041  0.3108  1.0000  -2.0177   0.0000   0.0000   0.0000   0.2533
   4.500   0.5477   0.01430   0.00639  -0.0035  0.2824  1.0000  -2.0664   0.0000   0.0000   0.0000   0.2520
   4.600   0.5554   0.01463   0.00657  -0.0029  0.2546  1.0000  -2.1163   0.0000   0.0000   0.0000   0.2508
   4.700   0.5631   0.01500   0.00679  -0.0023  0.2287  1.0000  -2.1744   0.0000   0.0000   0.0000   0.2495
   4.800   0.5708   0.01539   0.00704  -0.0017  0.2059  1.0000  -2.2317   0.0000   0.0000   0.0000   0.2483
   4.900   0.5785   0.01579   0.00732  -0.0011  0.1869  1.0000  -2.2878   0.0000   0.0000   0.0000   0.2471
   5.000   0.5862   0.01623   0.00764  -0.0004  0.1710  1.0000  -2.3429   0.0000   0.0000   0.0000   0.2459
   5.100   0.5936   0.01668   0.00795   0.0002  0.1576  1.0000  -2.3989   0.0000   0.0000   0.0000   0.2448
   5.200   0.6023   0.01700   0.00827   0.0008  0.1454  1.0000  -2.4565   0.0000   0.0000   0.0000   0.2438
   5.300   0.6098   0.01748   0.00862   0.0014  0.1357  1.0000  -2.5123   0.0000   0.0000   0.0000   0.2427
   5.400   0.6187   0.01777   0.00892   0.0019  0.1265  1.0000  -2.5722   0.0000   0.0000   0.0000   0.2418
   5.500   0.6259   0.01836   0.00942   0.0025  0.1195  1.0000  -2.6198   0.0000   0.0000   0.0000   0.2407
   5.600   0.6352   0.01867   0.00981   0.0031  0.1135  1.0000  -2.6742   0.0000   0.0000   0.0000   0.2399
   5.700   0.6439   0.01905   0.01017   0.0036  0.1081  1.0000  -2.7312   0.0000   0.0000   0.0000   0.2390
   5.800   0.6518   0.01971   0.01072   0.0042  0.1035  1.0000  -2.7847   0.0000   0.0000   0.0000   0.2382
   5.900   0.6611   0.02014   0.01121   0.0047  0.0994  1.0000  -2.8368   0.0000   0.0000   0.0000   0.2374
   6.000   0.6702   0.02050   0.01161   0.0052  0.0950  1.0000  -2.8939   0.0000   0.0000   0.0000   0.2366
   6.100   0.6790   0.02087   0.01193   0.0057  0.0908  1.0000  -2.9571   0.0000   0.0000   0.0000   0.2360
   6.200   0.6871   0.02168   0.01264   0.0061  0.0867  1.0000  -3.0119   0.0000   0.0000   0.0000   0.2354
   6.300   0.6966   0.02193   0.01301   0.0066  0.0834  1.0000  -3.0695   0.0000   0.0000   0.0000   0.2347
   6.400   0.7059   0.02236   0.01349   0.0071  0.0803  1.0000  -3.1243   0.0000   0.0000   0.0000   0.2341
   6.500   0.7152   0.02284   0.01398   0.0075  0.0778  1.0000  -3.1805   0.0000   0.0000   0.0000   0.2335
   6.600   0.7243   0.02338   0.01450   0.0079  0.0756  1.0000  -3.2385   0.0000   0.0000   0.0000   0.2330
   6.700   0.7332   0.02428   0.01535   0.0083  0.0734  1.0000  -3.2895   0.0000   0.0000   0.0000   0.2326
   6.800   0.7423   0.02522   0.01636   0.0087  0.0718  1.0000  -3.3275   0.0000   0.0000   0.0000   0.2321
   6.900   0.7517   0.02578   0.01706   0.0093  0.0704  1.0000  -3.3689   0.0000   0.0000   0.0000   0.2314
   7.000   0.7608   0.02646   0.01786   0.0098  0.0690  1.0000  -3.4075   0.0000   0.0000   0.0000   0.2308
   7.100   0.7698   0.02720   0.01872   0.0103  0.0676  1.0000  -3.4446   0.0000   0.0000   0.0000   0.2302
   7.200   0.7786   0.02797   0.01960   0.0108  0.0663  1.0000  -3.4809   0.0000   0.0000   0.0000   0.2296
   7.300   0.7872   0.02869   0.02041   0.0113  0.0650  1.0000  -3.5221   0.0000   0.0000   0.0000   0.2290
   7.400   0.7956   0.02929   0.02107   0.0118  0.0634  1.0000  -3.5729   0.0000   0.0000   0.0000   0.2285
   7.500   0.8038   0.02987   0.02163   0.0122  0.0616  1.0000  -3.6351   0.0000   0.0000   0.0000   0.2281
   7.600   0.8110   0.03117   0.02295   0.0124  0.0598  1.0000  -3.6857   0.0000   0.0000   0.0000   0.2279
   7.700   0.8172   0.03209   0.02406   0.0131  0.0584  1.0000  -3.7115   0.0000   0.0000   0.0000   0.2270
   7.800   0.8242   0.03264   0.02481   0.0139  0.0569  1.0000  -3.7425   0.0000   0.0000   0.0000   0.2262
   7.900   0.8307   0.03356   0.02593   0.0145  0.0560  1.0000  -3.7738   0.0000   0.0000   0.0000   0.2254
   8.000   0.8367   0.03464   0.02719   0.0153  0.0552  1.0000  -3.8095   0.0000   0.0000   0.0000   0.2246
   8.100   0.8422   0.03578   0.02851   0.0160  0.0546  1.0000  -3.8417   0.0000   0.0000   0.0000   0.2238
   8.200   0.8472   0.03698   0.02989   0.0167  0.0540  1.0000  -3.8703   0.0000   0.0000   0.0000   0.2230
   8.300   0.8515   0.03824   0.03132   0.0174  0.0535  1.0000  -3.8950   0.0000   0.0000   0.0000   0.2222
   8.400   0.8552   0.03956   0.03282   0.0182  0.0530  1.0000  -3.9155   0.0000   0.0000   0.0000   0.2213
   8.500   0.8583   0.04096   0.03438   0.0189  0.0527  1.0000  -3.9311   0.0000   0.0000   0.0000   0.2205
   8.600   0.8606   0.04243   0.03603   0.0197  0.0524  1.0000  -3.9409   0.0000   0.0000   0.0000   0.2196
   8.700   0.8619   0.04399   0.03777   0.0204  0.0522  1.0000  -3.9435   0.0000   0.0000   0.0000   0.2187
   8.800   0.8621   0.04567   0.03962   0.0212  0.0521  1.0000  -3.9376   0.0000   0.0000   0.0000   0.2178
   8.900   0.8610   0.04746   0.04159   0.0219  0.0522  1.0000  -3.9221   0.0000   0.0000   0.0000   0.2168
   9.000   0.8584   0.04938   0.04368   0.0226  0.0523  1.0000  -3.8969   0.0000   0.0000   0.0000   0.2159
   9.100   0.8546   0.05140   0.04587   0.0233  0.0526  1.0000  -3.8633   0.0000   0.0000   0.0000   0.2149
   9.200   0.8494   0.05348   0.04812   0.0238  0.0529  1.0000  -3.8237   0.0000   0.0000   0.0000   0.2140
   9.300   0.8432   0.05560   0.05037   0.0243  0.0533  1.0000  -3.7803   0.0000   0.0000   0.0000   0.2132
   9.400   0.8360   0.05771   0.05261   0.0246  0.0537  1.0000  -3.7350   0.0000   0.0000   0.0000   0.2125
   9.500   0.8281   0.05981   0.05482   0.0249  0.0541  1.0000  -3.6888   0.0000   0.0000   0.0000   0.2118
   9.600   0.8189   0.06173   0.05683   0.0252  0.0544  1.0000  -3.6439   0.0000   0.0000   0.0000   0.2109
   9.700   0.8092   0.06370   0.05887   0.0253  0.0548  1.0000  -3.5981   0.0000   0.0000   0.0000   0.2104
   9.800   0.7993   0.06583   0.06105   0.0249  0.0552  1.0000  -3.5495   0.0000   0.0000   0.0000   0.2104
   9.900   0.7893   0.06816   0.06344   0.0239  0.0555  1.0000  -3.4972   0.0000   0.0000   0.0000   0.2111
  10.000   0.7795   0.07074   0.06607   0.0223  0.0559  1.0000  -3.4408   0.0000   0.0000   0.0000   0.2126
  10.100   0.7699   0.07357   0.06894   0.0203  0.0564  1.0000  -3.3808   0.0000   0.0000   0.0000   0.2147
  10.200   0.7611   0.07663   0.07203   0.0180  0.0568  1.0000  -3.3194   0.0000   0.0000   0.0000   0.2173
  10.300   0.7534   0.07973   0.07515   0.0158  0.0573  1.0000  -3.2620   0.0000   0.0000   0.0000   0.2199
  10.400   0.7475   0.08268   0.07810   0.0139  0.0578  1.0000  -3.2160   0.0000   0.0000   0.0000   0.2222
  10.500   0.7440   0.08523   0.08064   0.0127  0.0583  1.0000  -3.1906   0.0000   0.0000   0.0000   0.2236
  10.600   0.7453   0.08687   0.08226   0.0132  0.0588  1.0000  -3.2112   0.0000   0.0000   0.0000   0.2228
  10.700   0.6751   0.11486   0.11026  -0.0091  0.1056  1.0000  -2.0557   0.0000   0.0000   0.0000   0.2552
  10.800   0.6803   0.11618   0.11158  -0.0085  0.1049  1.0000  -2.0928   0.0000   0.0000   0.0000   0.2540
  10.900   0.6873   0.11747   0.11289  -0.0072  0.1042  1.0000  -2.1452   0.0000   0.0000   0.0000   0.2520
  11.000   0.6965   0.11900   0.11443  -0.0052  0.1035  1.0000  -2.2157   0.0000   0.0000   0.0000   0.2489
  11.100   0.7055   0.12183   0.11726  -0.0028  0.1028  1.0000  -2.2797   0.0000   0.0000   0.0000   0.2454
  11.200   0.6975   0.12442   0.11982  -0.0056  0.1026  1.0000  -2.2095   0.0000   0.0000   0.0000   0.2493
  11.300   0.6889   0.12683   0.12221  -0.0086  0.1024  1.0000  -2.1326   0.0000   0.0000   0.0000   0.2537
  11.400   0.6728   0.12921   0.12454  -0.0137  0.1014  1.0000  -1.9940   0.0000   0.0000   0.0000   0.2615
  11.500   0.6598   0.13144   0.12673  -0.0180  0.0986  1.0000  -1.8783   0.0000   0.0000   0.0000   0.2682
  11.600   0.6581   0.13326   0.12853  -0.0192  0.0970  1.0000  -1.8558   0.0000   0.0000   0.0000   0.2701
  11.700   0.6580   0.13496   0.13022  -0.0201  0.0956  1.0000  -1.8466   0.0000   0.0000   0.0000   0.2713
  11.800   0.6589   0.13657   0.13183  -0.0207  0.0944  1.0000  -1.8449   0.0000   0.0000   0.0000   0.2721
  11.900   0.6604   0.13811   0.13337  -0.0211  0.0933  1.0000  -1.8496   0.0000   0.0000   0.0000   0.2727
  12.000   0.6627   0.13959   0.13485  -0.0214  0.0922  1.0000  -1.8606   0.0000   0.0000   0.0000   0.2729
  12.100   0.6658   0.14101   0.13627  -0.0216  0.0913  1.0000  -1.8784   0.0000   0.0000   0.0000   0.2728
  12.200   0.6698   0.14238   0.13765  -0.0215  0.0904  1.0000  -1.9040   0.0000   0.0000   0.0000   0.2724
  12.300   0.6748   0.14375   0.13902  -0.0211  0.0896  1.0000  -1.9386   0.0000   0.0000   0.0000   0.2715
  12.400   0.6811   0.14514   0.14042  -0.0204  0.0889  1.0000  -1.9841   0.0000   0.0000   0.0000   0.2701
  12.500   0.6888   0.14670   0.14199  -0.0192  0.0882  1.0000  -2.0424   0.0000   0.0000   0.0000   0.2680
  12.600   0.6993   0.14897   0.14433  -0.0171  0.0875  1.0000  -2.1203   0.0000   0.0000   0.0000   0.2644
  12.700   0.7031   0.15226   0.14761  -0.0166  0.0870  1.0000  -2.1360   0.0000   0.0000   0.0000   0.2635
  12.800   0.6995   0.15409   0.14943  -0.0184  0.0869  1.0000  -2.0899   0.0000   0.0000   0.0000   0.2662
  12.900   0.6954   0.15580   0.15111  -0.0205  0.0867  1.0000  -2.0385   0.0000   0.0000   0.0000   0.2693
  13.000   0.6892   0.15730   0.15259  -0.0231  0.0864  1.0000  -1.9699   0.0000   0.0000   0.0000   0.2732
  13.100   0.6792   0.15859   0.15380  -0.0267  0.0853  1.0000  -1.8695   0.0000   0.0000   0.0000   0.2789
  13.200   0.6739   0.15995   0.15515  -0.0290  0.0837  1.0000  -1.8096   0.0000   0.0000   0.0000   0.2825
  13.300   0.6732   0.16145   0.15664  -0.0302  0.0823  1.0000  -1.7882   0.0000   0.0000   0.0000   0.2842
  13.400   0.6740   0.16297   0.15816  -0.0310  0.0810  1.0000  -1.7792   0.0000   0.0000   0.0000   0.2853
  13.500   0.6755   0.16448   0.15966  -0.0317  0.0799  1.0000  -1.7764   0.0000   0.0000   0.0000   0.2860
  13.600   0.6775   0.16596   0.16114  -0.0322  0.0788  1.0000  -1.7782   0.0000   0.0000   0.0000   0.2866
  13.700   0.6799   0.16741   0.16263  -0.0326  0.0778  1.0000  -1.7821   0.0000   0.0000   0.0000   0.2870
  13.800   0.6830   0.16882   0.16404  -0.0329  0.0769  1.0000  -1.7934   0.0000   0.0000   0.0000   0.2871
  13.900   0.6876   0.17017   0.16540  -0.0328  0.0757  1.0000  -1.8209   0.0000   0.0000   0.0000   0.2865
  14.000   0.7015   0.17172   0.16698  -0.0306  0.0739  1.0000  -1.9349   0.0000   0.0000   0.0000   0.2823
  14.100   0.7147   0.17573   0.17100  -0.0273  0.0724  1.0000  -2.0473   0.0000   0.0000   0.0000   0.2767
  14.200   0.7117   0.17713   0.17238  -0.0293  0.0722  1.0000  -1.9934   0.0000   0.0000   0.0000   0.2796
  14.300   0.7075   0.17837   0.17361  -0.0317  0.0719  1.0000  -1.9276   0.0000   0.0000   0.0000   0.2832
  14.400   0.7018   0.17931   0.17453  -0.0343  0.0714  1.0000  -1.8520   0.0000   0.0000   0.0000   0.2872
  14.500   0.6966   0.18015   0.17534  -0.0368  0.0702  1.0000  -1.7812   0.0000   0.0000   0.0000   0.2910
  14.600   0.6958   0.18144   0.17663  -0.0384  0.0684  1.0000  -1.7447   0.0000   0.0000   0.0000   0.2932
  14.700   0.6973   0.18286   0.17804  -0.0393  0.0667  1.0000  -1.7333   0.0000   0.0000   0.0000   0.2943
  14.800   0.6995   0.18430   0.17948  -0.0399  0.0655  1.0000  -1.7293   0.0000   0.0000   0.0000   0.2949
  14.900   0.7020   0.18572   0.18090  -0.0405  0.0644  1.0000  -1.7299   0.0000   0.0000   0.0000   0.2954
  15.000   0.7050   0.18712   0.18230  -0.0409  0.0635  1.0000  -1.7357   0.0000   0.0000   0.0000   0.2956


