xflr5 v6.55

 Calculated polar for: NACA 0010

 1 1 Reynolds number fixed          Mach number fixed         

 xtrf =   1.000 (top)        1.000 (bottom)
 Mach =   0.200     Re =     0.160 e 6     Ncrit =   9.000

  alpha     CL        CD       CDp       Cm    Top Xtr Bot Xtr   Cpmin    Chinge    XCp    
 ------- -------- --------- --------- -------- ------- ------- -------- --------- ---------
   0.000  -0.0000   0.01142   0.00594   0.0000  1.0000  1.0000  -0.3528   0.0000   0.0000   0.0000   0.6779
   0.100   0.0230   0.01139   0.00592  -0.0026  0.9958  1.0000  -0.3730   0.0000   0.0000   0.0000   0.3612
   0.200   0.0474   0.01137   0.00589  -0.0054  0.9915  1.0000  -0.3961   0.0000   0.0000   0.0000   0.3625
   0.300   0.0715   0.01132   0.00585  -0.0081  0.9862  1.0000  -0.4203   0.0000   0.0000   0.0000   0.3617
   0.400   0.0967   0.01127   0.00581  -0.0110  0.9818  1.0000  -0.4469   0.0000   0.0000   0.0000   0.3621
   0.500   0.1208   0.01120   0.00575  -0.0137  0.9764  1.0000  -0.4754   0.0000   0.0000   0.0000   0.3612
   0.600   0.1438   0.01111   0.00568  -0.0161  0.9697  1.0000  -0.5046   0.0000   0.0000   0.0000   0.3597
   0.700   0.1681   0.01102   0.00560  -0.0187  0.9640  1.0000  -0.5375   0.0000   0.0000   0.0000   0.3590
   0.800   0.1865   0.01092   0.00552  -0.0201  0.9535  1.0000  -0.5670   0.0000   0.0000   0.0000   0.3555
   0.900   0.2081   0.01081   0.00543  -0.0221  0.9454  1.0000  -0.6019   0.0000   0.0000   0.0000   0.3538
   1.000   0.2231   0.01072   0.00534  -0.0227  0.9325  1.0000  -0.6303   0.0000   0.0000   0.0000   0.3495
   1.100   0.2401   0.01061   0.00524  -0.0236  0.9216  1.0000  -0.6653   0.0000   0.0000   0.0000   0.3462
   1.200   0.2521   0.01052   0.00515  -0.0236  0.9070  1.0000  -0.6942   0.0000   0.0000   0.0000   0.3412
   1.300   0.2636   0.01044   0.00507  -0.0234  0.8929  1.0000  -0.7228   0.0000   0.0000   0.0000   0.3364
   1.400   0.2746   0.01036   0.00500  -0.0230  0.8788  1.0000  -0.7530   0.0000   0.0000   0.0000   0.3313
   1.500   0.2835   0.01030   0.00493  -0.0223  0.8628  1.0000  -0.7830   0.0000   0.0000   0.0000   0.3262
   1.600   0.2930   0.01025   0.00484  -0.0216  0.8482  1.0000  -0.8140   0.0000   0.0000   0.0000   0.3212
   1.700   0.3016   0.01022   0.00478  -0.0208  0.8316  1.0000  -0.8440   0.0000   0.0000   0.0000   0.3164
   1.800   0.3104   0.01019   0.00472  -0.0201  0.8155  1.0000  -0.8745   0.0000   0.0000   0.0000   0.3119
   1.900   0.3193   0.01018   0.00465  -0.0193  0.7995  1.0000  -0.9054   0.0000   0.0000   0.0000   0.3075
   2.000   0.3281   0.01018   0.00461  -0.0186  0.7819  1.0000  -0.9363   0.0000   0.0000   0.0000   0.3037
   2.100   0.3370   0.01020   0.00456  -0.0178  0.7654  1.0000  -0.9733   0.0000   0.0000   0.0000   0.3000
   2.200   0.3459   0.01022   0.00453  -0.0171  0.7474  1.0000  -1.0107   0.0000   0.0000   0.0000   0.2965
   2.300   0.3549   0.01025   0.00451  -0.0165  0.7294  1.0000  -1.0486   0.0000   0.0000   0.0000   0.2934
   2.400   0.3639   0.01031   0.00447  -0.0157  0.7120  1.0000  -1.0870   0.0000   0.0000   0.0000   0.2902
   2.500   0.3730   0.01036   0.00448  -0.0152  0.6928  1.0000  -1.1257   0.0000   0.0000   0.0000   0.2875
   2.600   0.3820   0.01042   0.00447  -0.0146  0.6744  1.0000  -1.1648   0.0000   0.0000   0.0000   0.2849
   2.700   0.3910   0.01051   0.00446  -0.0139  0.6555  1.0000  -1.2042   0.0000   0.0000   0.0000   0.2823
   2.800   0.4002   0.01057   0.00448  -0.0134  0.6357  1.0000  -1.2440   0.0000   0.0000   0.0000   0.2801
   2.900   0.4093   0.01067   0.00449  -0.0128  0.6167  1.0000  -1.2860   0.0000   0.0000   0.0000   0.2779
   3.000   0.4182   0.01078   0.00450  -0.0122  0.5970  1.0000  -1.3341   0.0000   0.0000   0.0000   0.2757
   3.100   0.4273   0.01086   0.00454  -0.0117  0.5763  1.0000  -1.3829   0.0000   0.0000   0.0000   0.2738
   3.200   0.4363   0.01098   0.00457  -0.0111  0.5563  1.0000  -1.4319   0.0000   0.0000   0.0000   0.2719
   3.300   0.4451   0.01112   0.00460  -0.0105  0.5361  1.0000  -1.4811   0.0000   0.0000   0.0000   0.2700
   3.400   0.4542   0.01123   0.00470  -0.0100  0.5144  1.0000  -1.5265   0.0000   0.0000   0.0000   0.2683
   3.500   0.4631   0.01136   0.00476  -0.0095  0.4929  1.0000  -1.5757   0.0000   0.0000   0.0000   0.2667
   3.600   0.4719   0.01151   0.00481  -0.0089  0.4713  1.0000  -1.6255   0.0000   0.0000   0.0000   0.2651
   3.700   0.4805   0.01167   0.00487  -0.0083  0.4493  1.0000  -1.6756   0.0000   0.0000   0.0000   0.2635
   3.800   0.4893   0.01183   0.00494  -0.0078  0.4260  1.0000  -1.7263   0.0000   0.0000   0.0000   0.2620
   3.900   0.4980   0.01200   0.00502  -0.0073  0.4024  1.0000  -1.7774   0.0000   0.0000   0.0000   0.2606
   4.000   0.5066   0.01218   0.00511  -0.0068  0.3783  1.0000  -1.8285   0.0000   0.0000   0.0000   0.2593
   4.100   0.5152   0.01238   0.00521  -0.0062  0.3539  1.0000  -1.8795   0.0000   0.0000   0.0000   0.2580
   4.200   0.5236   0.01260   0.00532  -0.0057  0.3286  1.0000  -1.9306   0.0000   0.0000   0.0000   0.2567
   4.300   0.5319   0.01284   0.00544  -0.0052  0.3024  1.0000  -1.9814   0.0000   0.0000   0.0000   0.2554
   4.400   0.5401   0.01310   0.00557  -0.0047  0.2757  1.0000  -2.0320   0.0000   0.0000   0.0000   0.2542
   4.500   0.5483   0.01339   0.00572  -0.0041  0.2494  1.0000  -2.0820   0.0000   0.0000   0.0000   0.2530
   4.600   0.5563   0.01370   0.00590  -0.0036  0.2246  1.0000  -2.1380   0.0000   0.0000   0.0000   0.2519
   4.700   0.5643   0.01404   0.00611  -0.0030  0.2021  1.0000  -2.1981   0.0000   0.0000   0.0000   0.2507
   4.800   0.5724   0.01438   0.00634  -0.0025  0.1818  1.0000  -2.2578   0.0000   0.0000   0.0000   0.2496
   4.900   0.5805   0.01473   0.00659  -0.0019  0.1643  1.0000  -2.3172   0.0000   0.0000   0.0000   0.2485
   5.000   0.5885   0.01509   0.00686  -0.0014  0.1497  1.0000  -2.3761   0.0000   0.0000   0.0000   0.2475
   5.100   0.5960   0.01552   0.00714  -0.0007  0.1374  1.0000  -2.4342   0.0000   0.0000   0.0000   0.2463
   5.200   0.6050   0.01577   0.00740  -0.0002  0.1268  1.0000  -2.4963   0.0000   0.0000   0.0000   0.2454
   5.300   0.6125   0.01623   0.00775   0.0004  0.1185  1.0000  -2.5526   0.0000   0.0000   0.0000   0.2443
   5.400   0.6214   0.01650   0.00811   0.0009  0.1113  1.0000  -2.6086   0.0000   0.0000   0.0000   0.2433
   5.500   0.6294   0.01689   0.00844   0.0015  0.1053  1.0000  -2.6647   0.0000   0.0000   0.0000   0.2424
   5.600   0.6375   0.01736   0.00888   0.0022  0.1002  1.0000  -2.7175   0.0000   0.0000   0.0000   0.2413
   5.700   0.6465   0.01765   0.00921   0.0027  0.0952  1.0000  -2.7767   0.0000   0.0000   0.0000   0.2405
   5.800   0.6550   0.01800   0.00951   0.0032  0.0907  1.0000  -2.8391   0.0000   0.0000   0.0000   0.2396
   5.900   0.6625   0.01862   0.01005   0.0038  0.0864  1.0000  -2.8929   0.0000   0.0000   0.0000   0.2387
   6.000   0.6721   0.01883   0.01034   0.0043  0.0824  1.0000  -2.9560   0.0000   0.0000   0.0000   0.2380
   6.100   0.6811   0.01910   0.01062   0.0047  0.0785  1.0000  -3.0210   0.0000   0.0000   0.0000   0.2373
   6.200   0.6897   0.01950   0.01097   0.0052  0.0755  1.0000  -3.0844   0.0000   0.0000   0.0000   0.2367
   6.300   0.6972   0.02040   0.01180   0.0058  0.0726  1.0000  -3.1318   0.0000   0.0000   0.0000   0.2359
   6.400   0.7069   0.02071   0.01219   0.0063  0.0708  1.0000  -3.1887   0.0000   0.0000   0.0000   0.2352
   6.500   0.7163   0.02112   0.01267   0.0068  0.0687  1.0000  -3.2435   0.0000   0.0000   0.0000   0.2345
   6.600   0.7256   0.02157   0.01317   0.0073  0.0666  1.0000  -3.2985   0.0000   0.0000   0.0000   0.2339
   6.700   0.7348   0.02204   0.01366   0.0077  0.0647  1.0000  -3.3550   0.0000   0.0000   0.0000   0.2333
   6.800   0.7438   0.02253   0.01415   0.0081  0.0629  1.0000  -3.4130   0.0000   0.0000   0.0000   0.2328
   6.900   0.7528   0.02314   0.01475   0.0086  0.0614  1.0000  -3.4697   0.0000   0.0000   0.0000   0.2323
   7.000   0.7614   0.02423   0.01583   0.0089  0.0599  1.0000  -3.5113   0.0000   0.0000   0.0000   0.2318
   7.100   0.7701   0.02514   0.01684   0.0094  0.0587  1.0000  -3.5470   0.0000   0.0000   0.0000   0.2313
   7.200   0.7792   0.02553   0.01736   0.0100  0.0574  1.0000  -3.5957   0.0000   0.0000   0.0000   0.2306
   7.300   0.7880   0.02597   0.01791   0.0105  0.0557  1.0000  -3.6466   0.0000   0.0000   0.0000   0.2300
   7.400   0.7967   0.02638   0.01840   0.0110  0.0538  1.0000  -3.7042   0.0000   0.0000   0.0000   0.2295
   7.500   0.8054   0.02674   0.01885   0.0114  0.0519  1.0000  -3.7712   0.0000   0.0000   0.0000   0.2290
   7.600   0.8138   0.02717   0.01930   0.0118  0.0504  1.0000  -3.8382   0.0000   0.0000   0.0000   0.2286
   7.700   0.8222   0.02783   0.01999   0.0122  0.0494  1.0000  -3.8936   0.0000   0.0000   0.0000   0.2281
   7.800   0.8300   0.02876   0.02094   0.0126  0.0485  1.0000  -3.9394   0.0000   0.0000   0.0000   0.2277
   7.900   0.8366   0.03023   0.02250   0.0131  0.0476  1.0000  -3.9732   0.0000   0.0000   0.0000   0.2272
   8.000   0.8423   0.03172   0.02416   0.0137  0.0470  1.0000  -4.0035   0.0000   0.0000   0.0000   0.2264
   8.100   0.8492   0.03244   0.02505   0.0145  0.0465  1.0000  -4.0542   0.0000   0.0000   0.0000   0.2257
   8.200   0.8555   0.03332   0.02611   0.0152  0.0461  1.0000  -4.0970   0.0000   0.0000   0.0000   0.2248
   8.300   0.8611   0.03433   0.02732   0.0159  0.0456  1.0000  -4.1323   0.0000   0.0000   0.0000   0.2240
   8.400   0.8661   0.03547   0.02865   0.0167  0.0451  1.0000  -4.1609   0.0000   0.0000   0.0000   0.2232
   8.500   0.8703   0.03671   0.03009   0.0175  0.0447  1.0000  -4.1831   0.0000   0.0000   0.0000   0.2223
   8.600   0.8737   0.03805   0.03161   0.0183  0.0444  1.0000  -4.1992   0.0000   0.0000   0.0000   0.2213
   8.700   0.8763   0.03948   0.03323   0.0191  0.0441  1.0000  -4.2094   0.0000   0.0000   0.0000   0.2204
   8.800   0.8781   0.04099   0.03492   0.0199  0.0439  1.0000  -4.2140   0.0000   0.0000   0.0000   0.2195
   8.900   0.8790   0.04258   0.03669   0.0207  0.0438  1.0000  -4.2128   0.0000   0.0000   0.0000   0.2185
   9.000   0.8790   0.04424   0.03853   0.0215  0.0438  1.0000  -4.2061   0.0000   0.0000   0.0000   0.2175
   9.100   0.8780   0.04596   0.04042   0.0223  0.0438  1.0000  -4.1942   0.0000   0.0000   0.0000   0.2166
   9.200   0.8760   0.04773   0.04235   0.0230  0.0439  1.0000  -4.1777   0.0000   0.0000   0.0000   0.2156
   9.300   0.8731   0.04953   0.04430   0.0237  0.0440  1.0000  -4.1574   0.0000   0.0000   0.0000   0.2146
   9.400   0.8693   0.05136   0.04626   0.0244  0.0442  1.0000  -4.1340   0.0000   0.0000   0.0000   0.2137
   9.500   0.8647   0.05320   0.04823   0.0249  0.0444  1.0000  -4.1081   0.0000   0.0000   0.0000   0.2128
   9.600   0.8593   0.05504   0.05018   0.0254  0.0446  1.0000  -4.0802   0.0000   0.0000   0.0000   0.2120
   9.700   0.8531   0.05687   0.05210   0.0258  0.0448  1.0000  -4.0507   0.0000   0.0000   0.0000   0.2112
   9.800   0.8456   0.05855   0.05387   0.0264  0.0450  1.0000  -4.0203   0.0000   0.0000   0.0000   0.2101
   9.900   0.8374   0.06026   0.05565   0.0268  0.0452  1.0000  -3.9883   0.0000   0.0000   0.0000   0.2092
  10.000   0.8290   0.06208   0.05754   0.0268  0.0453  1.0000  -3.9537   0.0000   0.0000   0.0000   0.2087
  10.100   0.8205   0.06405   0.05957   0.0264  0.0455  1.0000  -3.9162   0.0000   0.0000   0.0000   0.2088
  10.200   0.8118   0.06620   0.06177   0.0256  0.0457  1.0000  -3.8753   0.0000   0.0000   0.0000   0.2093
  10.300   0.8032   0.06854   0.06415   0.0243  0.0459  1.0000  -3.8312   0.0000   0.0000   0.0000   0.2104
  10.400   0.7949   0.07107   0.06673   0.0228  0.0462  1.0000  -3.7843   0.0000   0.0000   0.0000   0.2119
  10.500   0.7872   0.07376   0.06945   0.0211  0.0464  1.0000  -3.7379   0.0000   0.0000   0.0000   0.2136
  10.600   0.7818   0.07639   0.07208   0.0199  0.0468  1.0000  -3.7046   0.0000   0.0000   0.0000   0.2148
  10.700   0.7090   0.09945   0.09528  -0.0007  0.0570  1.0000  -2.7178   0.0000   0.0000   0.0000   0.2418
  10.800   0.7107   0.10062   0.09649  -0.0001  0.0579  1.0000  -2.7446   0.0000   0.0000   0.0000   0.2409
  11.200   0.6920   0.12054   0.11638  -0.0062  0.0867  1.0000  -2.2627   0.0000   0.0000   0.0000   0.2500
  11.300   0.6680   0.12467   0.12043  -0.0145  0.0841  1.0000  -2.0169   0.0000   0.0000   0.0000   0.2628
  11.400   0.6645   0.12687   0.12262  -0.0163  0.0825  1.0000  -1.9735   0.0000   0.0000   0.0000   0.2655
  11.500   0.6635   0.12877   0.12452  -0.0174  0.0813  1.0000  -1.9550   0.0000   0.0000   0.0000   0.2671
  11.600   0.6634   0.13056   0.12630  -0.0183  0.0803  1.0000  -1.9450   0.0000   0.0000   0.0000   0.2683
  11.700   0.6639   0.13227   0.12800  -0.0190  0.0794  1.0000  -1.9410   0.0000   0.0000   0.0000   0.2692
  11.800   0.6649   0.13390   0.12963  -0.0195  0.0785  1.0000  -1.9417   0.0000   0.0000   0.0000   0.2700
  11.900   0.6664   0.13546   0.13119  -0.0200  0.0777  1.0000  -1.9469   0.0000   0.0000   0.0000   0.2705
  12.000   0.6683   0.13697   0.13270  -0.0204  0.0770  1.0000  -1.9568   0.0000   0.0000   0.0000   0.2709
  12.100   0.6708   0.13842   0.13414  -0.0206  0.0763  1.0000  -1.9718   0.0000   0.0000   0.0000   0.2710
  12.200   0.6738   0.13981   0.13553  -0.0207  0.0757  1.0000  -1.9924   0.0000   0.0000   0.0000   0.2709
  12.300   0.6775   0.14114   0.13687  -0.0206  0.0751  1.0000  -2.0196   0.0000   0.0000   0.0000   0.2705
  12.400   0.6820   0.14244   0.13818  -0.0203  0.0746  1.0000  -2.0546   0.0000   0.0000   0.0000   0.2697
  12.500   0.6873   0.14374   0.13948  -0.0197  0.0741  1.0000  -2.0986   0.0000   0.0000   0.0000   0.2686
  12.600   0.6935   0.14513   0.14092  -0.0187  0.0736  1.0000  -2.1493   0.0000   0.0000   0.0000   0.2668
  12.700   0.7026   0.14732   0.14314  -0.0164  0.0728  1.0000  -2.2360   0.0000   0.0000   0.0000   0.2630
  12.800   0.7021   0.15033   0.14612  -0.0169  0.0725  1.0000  -2.2155   0.0000   0.0000   0.0000   0.2637
  12.900   0.6991   0.15237   0.14814  -0.0188  0.0724  1.0000  -2.1661   0.0000   0.0000   0.0000   0.2664
  13.000   0.6955   0.15429   0.15005  -0.0208  0.0722  1.0000  -2.1108   0.0000   0.0000   0.0000   0.2694
  13.100   0.6908   0.15610   0.15184  -0.0233  0.0719  1.0000  -2.0417   0.0000   0.0000   0.0000   0.2731
  13.200   0.6834   0.15792   0.15363  -0.0266  0.0710  1.0000  -1.9433   0.0000   0.0000   0.0000   0.2783
  13.300   0.6783   0.15962   0.15528  -0.0292  0.0696  1.0000  -1.8745   0.0000   0.0000   0.0000   0.2823
  13.400   0.6775   0.16122   0.15687  -0.0305  0.0680  1.0000  -1.8472   0.0000   0.0000   0.0000   0.2841
  13.500   0.6784   0.16273   0.15838  -0.0313  0.0665  1.0000  -1.8391   0.0000   0.0000   0.0000   0.2852
  13.600   0.6805   0.16411   0.15980  -0.0318  0.0650  1.0000  -1.8419   0.0000   0.0000   0.0000   0.2857
  13.700   0.6840   0.16528   0.16097  -0.0320  0.0634  1.0000  -1.8657   0.0000   0.0000   0.0000   0.2856
  13.800   0.6909   0.16612   0.16182  -0.0313  0.0617  1.0000  -1.9318   0.0000   0.0000   0.0000   0.2839
  13.900   0.7047   0.16684   0.16256  -0.0285  0.0603  1.0000  -2.0764   0.0000   0.0000   0.0000   0.2789
  14.000   0.7146   0.17033   0.16606  -0.0254  0.0592  1.0000  -2.1791   0.0000   0.0000   0.0000   0.2739
  14.100   0.7146   0.17219   0.16792  -0.0266  0.0592  1.0000  -2.1465   0.0000   0.0000   0.0000   0.2756
  14.200   0.7136   0.17404   0.16976  -0.0281  0.0591  1.0000  -2.1037   0.0000   0.0000   0.0000   0.2777
  14.300   0.7124   0.17580   0.17151  -0.0297  0.0590  1.0000  -2.0569   0.0000   0.0000   0.0000   0.2799
  14.400   0.7108   0.17746   0.17315  -0.0316  0.0588  1.0000  -2.0020   0.0000   0.0000   0.0000   0.2826
  14.500   0.7071   0.17894   0.17462  -0.0341  0.0584  1.0000  -1.9251   0.0000   0.0000   0.0000   0.2863
  14.600   0.7014   0.18009   0.17575  -0.0370  0.0575  1.0000  -1.8356   0.0000   0.0000   0.0000   0.2906
  14.700   0.7001   0.18158   0.17723  -0.0388  0.0561  1.0000  -1.7835   0.0000   0.0000   0.0000   0.2933
  14.800   0.7013   0.18314   0.17879  -0.0398  0.0548  1.0000  -1.7613   0.0000   0.0000   0.0000   0.2946
  14.900   0.7031   0.18466   0.18030  -0.0406  0.0537  1.0000  -1.7495   0.0000   0.0000   0.0000   0.2954
  15.000   0.7054   0.18614   0.18178  -0.0413  0.0527  1.0000  -1.7435   0.0000   0.0000   0.0000   0.2961


