xflr5 v6.55

 Calculated polar for: NACA 0010

 1 1 Reynolds number fixed          Mach number fixed         

 xtrf =   1.000 (top)        1.000 (bottom)
 Mach =   0.200     Re =     0.100 e 6     Ncrit =   9.000

  alpha     CL        CD       CDp       Cm    Top Xtr Bot Xtr   Cpmin    Chinge    XCp    
 ------- -------- --------- --------- -------- ------- ------- -------- --------- ---------
   0.000   0.0000   0.01344   0.00643  -0.0000  1.0000  1.0000  -0.3531   0.0000   0.0000   0.0000   0.4453
   0.100  -0.0037   0.01345   0.00644   0.0021  1.0000  1.0000  -0.3553   0.0000   0.0000   0.0000   0.8308
   0.200  -0.0069   0.01348   0.00647   0.0041  1.0000  1.0000  -0.3578   0.0000   0.0000   0.0000   0.8551
   0.300  -0.0094   0.01353   0.00651   0.0060  1.0000  1.0000  -0.3606   0.0000   0.0000   0.0000   0.8980
   0.400  -0.0109   0.01361   0.00657   0.0077  1.0000  1.0000  -0.3641   0.0000   0.0000   0.0000   0.9633
   0.500  -0.0117   0.01370   0.00665   0.0092  1.0000  1.0000  -0.3686   0.0000   0.0000   0.0000   1.0510
   0.600  -0.0096   0.01380   0.00675   0.0103  0.9996  1.0000  -0.3751   0.0000   0.0000   0.0000   1.3293
   0.700   0.0188   0.01392   0.00689   0.0066  0.9939  1.0000  -0.4019   0.0000   0.0000   0.0000  -0.1120
   0.800   0.0465   0.01401   0.00699   0.0031  0.9874  1.0000  -0.4301   0.0000   0.0000   0.0000   0.1772
   0.900   0.0754   0.01409   0.00710  -0.0005  0.9815  1.0000  -0.4622   0.0000   0.0000   0.0000   0.2525
   1.000   0.1024   0.01412   0.00716  -0.0037  0.9741  1.0000  -0.4949   0.0000   0.0000   0.0000   0.2828
   1.100   0.1315   0.01413   0.00722  -0.0073  0.9674  1.0000  -0.5323   0.0000   0.0000   0.0000   0.3021
   1.200   0.1616   0.01411   0.00724  -0.0110  0.9609  1.0000  -0.5750   0.0000   0.0000   0.0000   0.3148
   1.300   0.1891   0.01406   0.00724  -0.0141  0.9523  1.0000  -0.6164   0.0000   0.0000   0.0000   0.3215
   1.400   0.2209   0.01395   0.00719  -0.0179  0.9457  1.0000  -0.6696   0.0000   0.0000   0.0000   0.3281
   1.500   0.2421   0.01386   0.00715  -0.0196  0.9339  1.0000  -0.7103   0.0000   0.0000   0.0000   0.3283
   1.600   0.2696   0.01370   0.00709  -0.0224  0.9248  1.0000  -0.7635   0.0000   0.0000   0.0000   0.3303
   1.700   0.2863   0.01360   0.00702  -0.0231  0.9107  1.0000  -0.8051   0.0000   0.0000   0.0000   0.3280
   1.800   0.3076   0.01344   0.00690  -0.0245  0.8991  1.0000  -0.8547   0.0000   0.0000   0.0000   0.3270
   1.900   0.3205   0.01335   0.00683  -0.0244  0.8833  1.0000  -0.8916   0.0000   0.0000   0.0000   0.3234
   2.000   0.3337   0.01326   0.00675  -0.0243  0.8684  1.0000  -0.9294   0.0000   0.0000   0.0000   0.3199
   2.100   0.3462   0.01315   0.00664  -0.0239  0.8535  1.0000  -0.9713   0.0000   0.0000   0.0000   0.3161
   2.200   0.3553   0.01312   0.00660  -0.0230  0.8361  1.0000  -1.0092   0.0000   0.0000   0.0000   0.3118
   2.300   0.3657   0.01305   0.00651  -0.0222  0.8205  1.0000  -1.0502   0.0000   0.0000   0.0000   0.3078
   2.400   0.3745   0.01302   0.00646  -0.0212  0.8029  1.0000  -1.0883   0.0000   0.0000   0.0000   0.3036
   2.500   0.3832   0.01301   0.00643  -0.0202  0.7850  1.0000  -1.1262   0.0000   0.0000   0.0000   0.2997
   2.600   0.3923   0.01299   0.00635  -0.0192  0.7685  1.0000  -1.1660   0.0000   0.0000   0.0000   0.2958
   2.700   0.4004   0.01302   0.00635  -0.0182  0.7489  1.0000  -1.2035   0.0000   0.0000   0.0000   0.2922
   2.800   0.4089   0.01305   0.00634  -0.0172  0.7301  1.0000  -1.2421   0.0000   0.0000   0.0000   0.2889
   2.900   0.4176   0.01309   0.00629  -0.0162  0.7122  1.0000  -1.2818   0.0000   0.0000   0.0000   0.2854
   3.000   0.4258   0.01314   0.00632  -0.0153  0.6913  1.0000  -1.3269   0.0000   0.0000   0.0000   0.2825
   3.100   0.4343   0.01322   0.00633  -0.0143  0.6713  1.0000  -1.3740   0.0000   0.0000   0.0000   0.2796
   3.200   0.4428   0.01330   0.00631  -0.0134  0.6516  1.0000  -1.4219   0.0000   0.0000   0.0000   0.2768
   3.300   0.4511   0.01339   0.00635  -0.0125  0.6300  1.0000  -1.4695   0.0000   0.0000   0.0000   0.2742
   3.400   0.4595   0.01350   0.00646  -0.0117  0.6082  1.0000  -1.5133   0.0000   0.0000   0.0000   0.2718
   3.500   0.4679   0.01362   0.00649  -0.0108  0.5866  1.0000  -1.5610   0.0000   0.0000   0.0000   0.2695
   3.600   0.4762   0.01377   0.00651  -0.0099  0.5648  1.0000  -1.6094   0.0000   0.0000   0.0000   0.2671
   3.700   0.4844   0.01390   0.00658  -0.0091  0.5409  1.0000  -1.6579   0.0000   0.0000   0.0000   0.2651
   3.800   0.4927   0.01405   0.00665  -0.0084  0.5167  1.0000  -1.7067   0.0000   0.0000   0.0000   0.2631
   3.900   0.5009   0.01422   0.00673  -0.0076  0.4924  1.0000  -1.7557   0.0000   0.0000   0.0000   0.2612
   4.000   0.5089   0.01441   0.00681  -0.0068  0.4671  1.0000  -1.8047   0.0000   0.0000   0.0000   0.2593
   4.100   0.5168   0.01462   0.00690  -0.0060  0.4408  1.0000  -1.8534   0.0000   0.0000   0.0000   0.2575
   4.200   0.5246   0.01485   0.00701  -0.0052  0.4135  1.0000  -1.9019   0.0000   0.0000   0.0000   0.2558
   4.300   0.5324   0.01510   0.00713  -0.0045  0.3851  1.0000  -1.9500   0.0000   0.0000   0.0000   0.2542
   4.400   0.5399   0.01539   0.00728  -0.0037  0.3556  1.0000  -1.9973   0.0000   0.0000   0.0000   0.2526
   4.500   0.5473   0.01571   0.00745  -0.0030  0.3257  1.0000  -2.0438   0.0000   0.0000   0.0000   0.2510
   4.600   0.5546   0.01608   0.00764  -0.0022  0.2965  1.0000  -2.0890   0.0000   0.0000   0.0000   0.2495
   4.700   0.5617   0.01650   0.00788  -0.0015  0.2692  1.0000  -2.1395   0.0000   0.0000   0.0000   0.2481
   4.800   0.5689   0.01696   0.00815  -0.0008  0.2440  1.0000  -2.1935   0.0000   0.0000   0.0000   0.2467
   4.900   0.5763   0.01741   0.00845  -0.0001  0.2215  1.0000  -2.2474   0.0000   0.0000   0.0000   0.2454
   5.000   0.5841   0.01783   0.00877   0.0006  0.2018  1.0000  -2.3015   0.0000   0.0000   0.0000   0.2442
   5.100   0.5921   0.01830   0.00915   0.0012  0.1856  1.0000  -2.3542   0.0000   0.0000   0.0000   0.2431
   5.200   0.5997   0.01885   0.00956   0.0019  0.1733  1.0000  -2.4059   0.0000   0.0000   0.0000   0.2419
   5.300   0.6082   0.01926   0.00994   0.0025  0.1617  1.0000  -2.4600   0.0000   0.0000   0.0000   0.2409
   5.400   0.6164   0.01980   0.01041   0.0031  0.1520  1.0000  -2.5121   0.0000   0.0000   0.0000   0.2399
   5.500   0.6250   0.02018   0.01081   0.0036  0.1426  1.0000  -2.5639   0.0000   0.0000   0.0000   0.2391
   5.600   0.6332   0.02075   0.01130   0.0041  0.1348  1.0000  -2.6161   0.0000   0.0000   0.0000   0.2382
   5.700   0.6422   0.02113   0.01172   0.0046  0.1274  1.0000  -2.6698   0.0000   0.0000   0.0000   0.2374
   5.800   0.6509   0.02167   0.01217   0.0051  0.1221  1.0000  -2.7254   0.0000   0.0000   0.0000   0.2367
   5.900   0.6601   0.02240   0.01287   0.0056  0.1174  1.0000  -2.7734   0.0000   0.0000   0.0000   0.2360
   6.000   0.6697   0.02290   0.01346   0.0061  0.1129  1.0000  -2.8213   0.0000   0.0000   0.0000   0.2353
   6.100   0.6791   0.02343   0.01400   0.0066  0.1088  1.0000  -2.8732   0.0000   0.0000   0.0000   0.2347
   6.200   0.6881   0.02405   0.01454   0.0070  0.1050  1.0000  -2.9303   0.0000   0.0000   0.0000   0.2342
   6.300   0.6973   0.02489   0.01539   0.0074  0.1012  1.0000  -2.9771   0.0000   0.0000   0.0000   0.2337
   6.400   0.7064   0.02528   0.01591   0.0079  0.0971  1.0000  -3.0269   0.0000   0.0000   0.0000   0.2330
   6.500   0.7152   0.02568   0.01634   0.0084  0.0930  1.0000  -3.0842   0.0000   0.0000   0.0000   0.2324
   6.600   0.7241   0.02622   0.01683   0.0087  0.0897  1.0000  -3.1450   0.0000   0.0000   0.0000   0.2320
   6.700   0.7333   0.02746   0.01800   0.0090  0.0873  1.0000  -3.1900   0.0000   0.0000   0.0000   0.2317
   6.800   0.7423   0.02817   0.01887   0.0095  0.0857  1.0000  -3.2243   0.0000   0.0000   0.0000   0.2310
   6.900   0.7512   0.02890   0.01978   0.0101  0.0840  1.0000  -3.2564   0.0000   0.0000   0.0000   0.2303
   7.000   0.7599   0.02973   0.02077   0.0107  0.0823  1.0000  -3.2870   0.0000   0.0000   0.0000   0.2296
   7.100   0.7683   0.03060   0.02178   0.0113  0.0808  1.0000  -3.3172   0.0000   0.0000   0.0000   0.2290
   7.200   0.7766   0.03150   0.02280   0.0119  0.0794  1.0000  -3.3474   0.0000   0.0000   0.0000   0.2284
   7.300   0.7846   0.03242   0.02384   0.0124  0.0781  1.0000  -3.3780   0.0000   0.0000   0.0000   0.2277
   7.400   0.7925   0.03337   0.02488   0.0129  0.0771  1.0000  -3.4090   0.0000   0.0000   0.0000   0.2272
   7.500   0.8000   0.03439   0.02601   0.0135  0.0762  1.0000  -3.4369   0.0000   0.0000   0.0000   0.2266
   7.600   0.8072   0.03544   0.02715   0.0140  0.0753  1.0000  -3.4660   0.0000   0.0000   0.0000   0.2260
   7.700   0.8140   0.03659   0.02833   0.0144  0.0740  1.0000  -3.5025   0.0000   0.0000   0.0000   0.2256
   7.800   0.8188   0.03861   0.03047   0.0147  0.0727  1.0000  -3.5207   0.0000   0.0000   0.0000   0.2252
   7.900   0.8228   0.03947   0.03159   0.0157  0.0716  1.0000  -3.5274   0.0000   0.0000   0.0000   0.2241
   8.000   0.8267   0.04035   0.03275   0.0166  0.0702  1.0000  -3.5487   0.0000   0.0000   0.0000   0.2230
   8.100   0.8302   0.04143   0.03406   0.0174  0.0687  1.0000  -3.5698   0.0000   0.0000   0.0000   0.2220
   8.200   0.8336   0.04260   0.03542   0.0181  0.0673  1.0000  -3.5925   0.0000   0.0000   0.0000   0.2212
   8.300   0.8365   0.04393   0.03693   0.0188  0.0665  1.0000  -3.6099   0.0000   0.0000   0.0000   0.2204
   8.400   0.8382   0.04550   0.03868   0.0195  0.0662  1.0000  -3.6141   0.0000   0.0000   0.0000   0.2195
   8.500   0.8390   0.04716   0.04052   0.0202  0.0660  1.0000  -3.6121   0.0000   0.0000   0.0000   0.2187
   8.600   0.8388   0.04891   0.04244   0.0209  0.0660  1.0000  -3.6039   0.0000   0.0000   0.0000   0.2178
   8.700   0.8376   0.05074   0.04445   0.0215  0.0660  1.0000  -3.5894   0.0000   0.0000   0.0000   0.2170
   8.800   0.8353   0.05265   0.04652   0.0221  0.0662  1.0000  -3.5688   0.0000   0.0000   0.0000   0.2162
   8.900   0.8320   0.05463   0.04865   0.0226  0.0664  1.0000  -3.5430   0.0000   0.0000   0.0000   0.2154
   9.000   0.8277   0.05665   0.05081   0.0230  0.0667  1.0000  -3.5130   0.0000   0.0000   0.0000   0.2147
   9.100   0.8224   0.05871   0.05298   0.0233  0.0671  1.0000  -3.4799   0.0000   0.0000   0.0000   0.2141
   9.200   0.8165   0.06078   0.05516   0.0235  0.0675  1.0000  -3.4445   0.0000   0.0000   0.0000   0.2136
   9.300   0.8099   0.06285   0.05733   0.0236  0.0679  1.0000  -3.4079   0.0000   0.0000   0.0000   0.2131
   9.400   0.8022   0.06490   0.05946   0.0236  0.0684  1.0000  -3.3687   0.0000   0.0000   0.0000   0.2127
   9.500   0.7935   0.06684   0.06146   0.0237  0.0688  1.0000  -3.3299   0.0000   0.0000   0.0000   0.2122
   9.600   0.7850   0.06888   0.06354   0.0234  0.0692  1.0000  -3.2908   0.0000   0.0000   0.0000   0.2121
   9.700   0.7768   0.07104   0.06574   0.0228  0.0697  1.0000  -3.2515   0.0000   0.0000   0.0000   0.2125
   9.800   0.7693   0.07332   0.06805   0.0218  0.0701  1.0000  -3.2135   0.0000   0.0000   0.0000   0.2133
   9.900   0.7629   0.07568   0.07044   0.0207  0.0705  1.0000  -3.1791   0.0000   0.0000   0.0000   0.2145
  10.000   0.7580   0.07804   0.07281   0.0196  0.0710  1.0000  -3.1514   0.0000   0.0000   0.0000   0.2156
  10.100   0.7543   0.08040   0.07517   0.0186  0.0715  1.0000  -3.1306   0.0000   0.0000   0.0000   0.2167
  10.200   0.7544   0.08252   0.07728   0.0184  0.0720  1.0000  -3.1329   0.0000   0.0000   0.0000   0.2169
  10.300   0.6626   0.11323   0.10801  -0.0105  0.1412  1.0000  -1.8942   0.0000   0.0000   0.0000   0.2581
  10.400   0.6693   0.11468   0.10948  -0.0097  0.1401  1.0000  -1.9324   0.0000   0.0000   0.0000   0.2567
  10.500   0.6793   0.11625   0.11106  -0.0082  0.1391  1.0000  -1.9893   0.0000   0.0000   0.0000   0.2541
  10.600   0.6967   0.11850   0.11336  -0.0048  0.1381  1.0000  -2.0897   0.0000   0.0000   0.0000   0.2490
  10.700   0.6979   0.12153   0.11636  -0.0049  0.1374  1.0000  -2.0886   0.0000   0.0000   0.0000   0.2491
  10.800   0.6858   0.12350   0.11829  -0.0082  0.1371  1.0000  -2.0093   0.0000   0.0000   0.0000   0.2539
  10.900   0.6631   0.12509   0.11980  -0.0137  0.1357  1.0000  -1.8664   0.0000   0.0000   0.0000   0.2624
  11.000   0.6504   0.12668   0.12135  -0.0172  0.1323  1.0000  -1.7825   0.0000   0.0000   0.0000   0.2680
  11.100   0.6486   0.12830   0.12296  -0.0182  0.1301  1.0000  -1.7662   0.0000   0.0000   0.0000   0.2696
  11.200   0.6490   0.12986   0.12451  -0.0188  0.1282  1.0000  -1.7636   0.0000   0.0000   0.0000   0.2704
  11.300   0.6508   0.13137   0.12601  -0.0191  0.1265  1.0000  -1.7701   0.0000   0.0000   0.0000   0.2707
  11.400   0.6540   0.13282   0.12747  -0.0192  0.1250  1.0000  -1.7854   0.0000   0.0000   0.0000   0.2706
  11.500   0.6587   0.13426   0.12892  -0.0189  0.1236  1.0000  -1.8109   0.0000   0.0000   0.0000   0.2699
  11.600   0.6655   0.13574   0.13040  -0.0182  0.1224  1.0000  -1.8505   0.0000   0.0000   0.0000   0.2685
  11.700   0.6755   0.13740   0.13209  -0.0168  0.1213  1.0000  -1.9105   0.0000   0.0000   0.0000   0.2660
  11.800   0.6923   0.14001   0.13474  -0.0139  0.1202  1.0000  -2.0132   0.0000   0.0000   0.0000   0.2611
  11.900   0.6973   0.14334   0.13806  -0.0133  0.1195  1.0000  -2.0342   0.0000   0.0000   0.0000   0.2601
  12.000   0.6896   0.14482   0.13951  -0.0158  0.1193  1.0000  -1.9741   0.0000   0.0000   0.0000   0.2637
  12.100   0.6782   0.14601   0.14066  -0.0189  0.1187  1.0000  -1.8903   0.0000   0.0000   0.0000   0.2687
  12.200   0.6632   0.14688   0.14147  -0.0230  0.1170  1.0000  -1.7811   0.0000   0.0000   0.0000   0.2753
  12.300   0.6584   0.14821   0.14278  -0.0249  0.1147  1.0000  -1.7398   0.0000   0.0000   0.0000   0.2782
  12.400   0.6578   0.14968   0.14425  -0.0258  0.1129  1.0000  -1.7276   0.0000   0.0000   0.0000   0.2796
  12.500   0.6587   0.15116   0.14572  -0.0264  0.1112  1.0000  -1.7254   0.0000   0.0000   0.0000   0.2803
  12.600   0.6606   0.15263   0.14719  -0.0268  0.1098  1.0000  -1.7300   0.0000   0.0000   0.0000   0.2808
  12.700   0.6634   0.15409   0.14865  -0.0271  0.1084  1.0000  -1.7408   0.0000   0.0000   0.0000   0.2809
  12.800   0.6672   0.15558   0.15014  -0.0272  0.1072  1.0000  -1.7589   0.0000   0.0000   0.0000   0.2807
  12.900   0.6724   0.15713   0.15170  -0.0270  0.1061  1.0000  -1.7866   0.0000   0.0000   0.0000   0.2800
  13.000   0.6797   0.15884   0.15343  -0.0263  0.1050  1.0000  -1.8286   0.0000   0.0000   0.0000   0.2786
  13.100   0.6902   0.16098   0.15558  -0.0250  0.1041  1.0000  -1.8926   0.0000   0.0000   0.0000   0.2760
  13.200   0.7097   0.16545   0.16016  -0.0215  0.1029  1.0000  -2.0098   0.0000   0.0000   0.0000   0.2700
  13.300   0.7083   0.16758   0.16226  -0.0226  0.1027  1.0000  -1.9838   0.0000   0.0000   0.0000   0.2716
  13.400   0.7029   0.16870   0.16335  -0.0247  0.1025  1.0000  -1.9325   0.0000   0.0000   0.0000   0.2747
  13.500   0.6961   0.16955   0.16417  -0.0271  0.1021  1.0000  -1.8704   0.0000   0.0000   0.0000   0.2784
  13.600   0.6871   0.17003   0.16462  -0.0300  0.1014  1.0000  -1.7945   0.0000   0.0000   0.0000   0.2830
  13.700   0.6799   0.17050   0.16502  -0.0324  0.0999  1.0000  -1.7357   0.0000   0.0000   0.0000   0.2868
  13.800   0.6784   0.17165   0.16615  -0.0337  0.0983  1.0000  -1.7091   0.0000   0.0000   0.0000   0.2888
  13.900   0.6791   0.17303   0.16753  -0.0346  0.0967  1.0000  -1.6986   0.0000   0.0000   0.0000   0.2899
  14.000   0.6807   0.17446   0.16900  -0.0353  0.0954  1.0000  -1.6926   0.0000   0.0000   0.0000   0.2907
  14.100   0.6830   0.17590   0.17045  -0.0359  0.0941  1.0000  -1.6932   0.0000   0.0000   0.0000   0.2913
  14.200   0.6857   0.17735   0.17190  -0.0363  0.0929  1.0000  -1.6983   0.0000   0.0000   0.0000   0.2916
  14.300   0.6890   0.17882   0.17337  -0.0366  0.0918  1.0000  -1.7082   0.0000   0.0000   0.0000   0.2916
  14.400   0.6931   0.18035   0.17490  -0.0367  0.0907  1.0000  -1.7240   0.0000   0.0000   0.0000   0.2914
  14.500   0.6984   0.18204   0.17661  -0.0366  0.0897  1.0000  -1.7495   0.0000   0.0000   0.0000   0.2907
  14.600   0.7293   0.18937   0.18399  -0.0305  0.0870  1.0000  -1.9583   0.0000   0.0000   0.0000   0.2802
  14.700   0.7256   0.19025   0.18486  -0.0325  0.0869  1.0000  -1.9084   0.0000   0.0000   0.0000   0.2830
  14.800   0.7212   0.19091   0.18550  -0.0347  0.0866  1.0000  -1.8527   0.0000   0.0000   0.0000   0.2862
  14.900   0.7155   0.19118   0.18574  -0.0370  0.0863  1.0000  -1.7924   0.0000   0.0000   0.0000   0.2897
  15.000   0.7094   0.19110   0.18563  -0.0392  0.0856  1.0000  -1.7318   0.0000   0.0000   0.0000   0.2931


