xflr5 v6.55

 Calculated polar for: NACA 0010

 1 1 Reynolds number fixed          Mach number fixed         

 xtrf =   1.000 (top)        1.000 (bottom)
 Mach =   0.200     Re =     0.190 e 6     Ncrit =   9.000

  alpha     CL        CD       CDp       Cm    Top Xtr Bot Xtr   Cpmin    Chinge    XCp    
 ------- -------- --------- --------- -------- ------- ------- -------- --------- ---------
   0.000   0.0000   0.01040   0.00536  -0.0000  0.9742  0.9742  -0.3531   0.0000   0.0000   0.0000   0.2847
   0.100   0.0248   0.01039   0.00535  -0.0027  0.9711  0.9774  -0.3748   0.0000   0.0000   0.0000   0.3555
   0.200   0.0495   0.01038   0.00534  -0.0053  0.9680  0.9802  -0.3984   0.0000   0.0000   0.0000   0.3553
   0.300   0.0760   0.01033   0.00530  -0.0083  0.9651  0.9817  -0.4248   0.0000   0.0000   0.0000   0.3575
   0.400   0.1002   0.01027   0.00525  -0.0109  0.9600  0.9838  -0.4509   0.0000   0.0000   0.0000   0.3563
   0.500   0.1233   0.01021   0.00519  -0.0132  0.9535  0.9862  -0.4790   0.0000   0.0000   0.0000   0.3546
   0.600   0.1471   0.01013   0.00513  -0.0156  0.9475  0.9886  -0.5095   0.0000   0.0000   0.0000   0.3538
   0.700   0.1686   0.01006   0.00507  -0.0175  0.9395  0.9916  -0.5398   0.0000   0.0000   0.0000   0.3518
   0.800   0.1900   0.00997   0.00499  -0.0194  0.9298  0.9941  -0.5730   0.0000   0.0000   0.0000   0.3500
   0.900   0.2115   0.00987   0.00489  -0.0213  0.9198  0.9964  -0.6080   0.0000   0.0000   0.0000   0.3485
   1.000   0.2310   0.00978   0.00480  -0.0228  0.9073  0.9994  -0.6434   0.0000   0.0000   0.0000   0.3464
   1.100   0.2430   0.00970   0.00471  -0.0228  0.8935  1.0000  -0.6721   0.0000   0.0000   0.0000   0.3414
   1.200   0.2526   0.00963   0.00461  -0.0222  0.8790  1.0000  -0.6980   0.0000   0.0000   0.0000   0.3355
   1.300   0.2612   0.00957   0.00453  -0.0215  0.8633  1.0000  -0.7228   0.0000   0.0000   0.0000   0.3299
   1.400   0.2700   0.00952   0.00447  -0.0207  0.8487  1.0000  -0.7500   0.0000   0.0000   0.0000   0.3244
   1.500   0.2786   0.00949   0.00440  -0.0200  0.8323  1.0000  -0.7793   0.0000   0.0000   0.0000   0.3194
   1.600   0.2873   0.00946   0.00433  -0.0193  0.8165  1.0000  -0.8092   0.0000   0.0000   0.0000   0.3147
   1.700   0.2962   0.00945   0.00426  -0.0186  0.8004  1.0000  -0.8394   0.0000   0.0000   0.0000   0.3102
   1.800   0.3052   0.00945   0.00422  -0.0180  0.7833  1.0000  -0.8700   0.0000   0.0000   0.0000   0.3063
   1.900   0.3143   0.00946   0.00416  -0.0174  0.7669  1.0000  -0.9012   0.0000   0.0000   0.0000   0.3025
   2.000   0.3235   0.00948   0.00413  -0.0168  0.7490  1.0000  -0.9326   0.0000   0.0000   0.0000   0.2991
   2.100   0.3328   0.00951   0.00409  -0.0163  0.7316  1.0000  -0.9698   0.0000   0.0000   0.0000   0.2960
   2.200   0.3420   0.00956   0.00405  -0.0157  0.7139  1.0000  -1.0080   0.0000   0.0000   0.0000   0.2929
   2.300   0.3514   0.00960   0.00404  -0.0152  0.6953  1.0000  -1.0466   0.0000   0.0000   0.0000   0.2903
   2.400   0.3607   0.00966   0.00403  -0.0147  0.6774  1.0000  -1.0854   0.0000   0.0000   0.0000   0.2876
   2.500   0.3700   0.00973   0.00402  -0.0142  0.6584  1.0000  -1.1246   0.0000   0.0000   0.0000   0.2851
   2.600   0.3794   0.00980   0.00402  -0.0137  0.6395  1.0000  -1.1642   0.0000   0.0000   0.0000   0.2829
   2.700   0.3886   0.00989   0.00402  -0.0132  0.6210  1.0000  -1.2040   0.0000   0.0000   0.0000   0.2807
   2.800   0.3979   0.00997   0.00403  -0.0127  0.6012  1.0000  -1.2442   0.0000   0.0000   0.0000   0.2786
   2.900   0.4073   0.01006   0.00405  -0.0122  0.5818  1.0000  -1.2875   0.0000   0.0000   0.0000   0.2767
   3.000   0.4164   0.01017   0.00407  -0.0117  0.5624  1.0000  -1.3361   0.0000   0.0000   0.0000   0.2748
   3.100   0.4256   0.01027   0.00410  -0.0113  0.5421  1.0000  -1.3853   0.0000   0.0000   0.0000   0.2730
   3.200   0.4349   0.01038   0.00414  -0.0108  0.5220  1.0000  -1.4350   0.0000   0.0000   0.0000   0.2713
   3.300   0.4439   0.01051   0.00417  -0.0103  0.5017  1.0000  -1.4847   0.0000   0.0000   0.0000   0.2697
   3.400   0.4529   0.01065   0.00426  -0.0098  0.4804  1.0000  -1.5302   0.0000   0.0000   0.0000   0.2680
   3.500   0.4621   0.01076   0.00432  -0.0094  0.4591  1.0000  -1.5801   0.0000   0.0000   0.0000   0.2666
   3.600   0.4711   0.01091   0.00438  -0.0089  0.4378  1.0000  -1.6306   0.0000   0.0000   0.0000   0.2651
   3.700   0.4800   0.01106   0.00444  -0.0085  0.4161  1.0000  -1.6814   0.0000   0.0000   0.0000   0.2637
   3.800   0.4887   0.01124   0.00451  -0.0080  0.3936  1.0000  -1.7323   0.0000   0.0000   0.0000   0.2623
   3.900   0.4976   0.01141   0.00459  -0.0075  0.3705  1.0000  -1.7839   0.0000   0.0000   0.0000   0.2610
   4.000   0.5064   0.01158   0.00468  -0.0070  0.3471  1.0000  -1.8357   0.0000   0.0000   0.0000   0.2598
   4.100   0.5151   0.01178   0.00477  -0.0066  0.3229  1.0000  -1.8876   0.0000   0.0000   0.0000   0.2586
   4.200   0.5237   0.01199   0.00488  -0.0061  0.2982  1.0000  -1.9394   0.0000   0.0000   0.0000   0.2574
   4.300   0.5322   0.01222   0.00500  -0.0056  0.2734  1.0000  -1.9911   0.0000   0.0000   0.0000   0.2562
   4.400   0.5407   0.01247   0.00513  -0.0051  0.2491  1.0000  -2.0427   0.0000   0.0000   0.0000   0.2551
   4.500   0.5491   0.01273   0.00528  -0.0047  0.2255  1.0000  -2.0940   0.0000   0.0000   0.0000   0.2540
   4.600   0.5575   0.01302   0.00545  -0.0042  0.2027  1.0000  -2.1547   0.0000   0.0000   0.0000   0.2529
   4.700   0.5658   0.01332   0.00563  -0.0037  0.1818  1.0000  -2.2169   0.0000   0.0000   0.0000   0.2518
   4.800   0.5741   0.01363   0.00584  -0.0032  0.1632  1.0000  -2.2789   0.0000   0.0000   0.0000   0.2508
   4.900   0.5824   0.01394   0.00606  -0.0026  0.1473  1.0000  -2.3408   0.0000   0.0000   0.0000   0.2498
   5.000   0.5906   0.01428   0.00630  -0.0021  0.1343  1.0000  -2.4019   0.0000   0.0000   0.0000   0.2487
   5.100   0.5990   0.01458   0.00654  -0.0016  0.1233  1.0000  -2.4644   0.0000   0.0000   0.0000   0.2477
   5.200   0.6074   0.01491   0.00684  -0.0010  0.1145  1.0000  -2.5241   0.0000   0.0000   0.0000   0.2467
   5.300   0.6158   0.01521   0.00710  -0.0005  0.1070  1.0000  -2.5863   0.0000   0.0000   0.0000   0.2457
   5.400   0.6236   0.01563   0.00751   0.0002  0.1008  1.0000  -2.6376   0.0000   0.0000   0.0000   0.2446
   5.500   0.6326   0.01588   0.00778   0.0007  0.0951  1.0000  -2.6982   0.0000   0.0000   0.0000   0.2437
   5.600   0.6409   0.01621   0.00807   0.0012  0.0900  1.0000  -2.7604   0.0000   0.0000   0.0000   0.2428
   5.700   0.6487   0.01666   0.00848   0.0019  0.0854  1.0000  -2.8165   0.0000   0.0000   0.0000   0.2417
   5.800   0.6580   0.01687   0.00873   0.0023  0.0810  1.0000  -2.8820   0.0000   0.0000   0.0000   0.2410
   5.900   0.6669   0.01712   0.00896   0.0028  0.0769  1.0000  -2.9497   0.0000   0.0000   0.0000   0.2403
   6.000   0.6742   0.01768   0.00944   0.0034  0.0733  1.0000  -3.0071   0.0000   0.0000   0.0000   0.2393
   6.100   0.6830   0.01806   0.00986   0.0040  0.0708  1.0000  -3.0646   0.0000   0.0000   0.0000   0.2384
   6.200   0.6921   0.01837   0.01022   0.0045  0.0683  1.0000  -3.1251   0.0000   0.0000   0.0000   0.2377
   6.300   0.7012   0.01870   0.01058   0.0050  0.0659  1.0000  -3.1864   0.0000   0.0000   0.0000   0.2370
   6.400   0.7100   0.01906   0.01092   0.0055  0.0637  1.0000  -3.2495   0.0000   0.0000   0.0000   0.2363
   6.500   0.7185   0.01950   0.01134   0.0060  0.0617  1.0000  -3.3116   0.0000   0.0000   0.0000   0.2356
   6.600   0.7262   0.02040   0.01221   0.0066  0.0596  1.0000  -3.3572   0.0000   0.0000   0.0000   0.2348
   6.700   0.7354   0.02090   0.01277   0.0071  0.0583  1.0000  -3.4091   0.0000   0.0000   0.0000   0.2342
   6.800   0.7448   0.02132   0.01325   0.0076  0.0570  1.0000  -3.4633   0.0000   0.0000   0.0000   0.2336
   6.900   0.7541   0.02176   0.01377   0.0080  0.0555  1.0000  -3.5173   0.0000   0.0000   0.0000   0.2330
   7.000   0.7633   0.02218   0.01423   0.0085  0.0538  1.0000  -3.5752   0.0000   0.0000   0.0000   0.2324
   7.100   0.7724   0.02253   0.01461   0.0089  0.0521  1.0000  -3.6401   0.0000   0.0000   0.0000   0.2319
   7.200   0.7812   0.02286   0.01494   0.0093  0.0503  1.0000  -3.7120   0.0000   0.0000   0.0000   0.2315
   7.300   0.7895   0.02342   0.01547   0.0097  0.0486  1.0000  -3.7801   0.0000   0.0000   0.0000   0.2310
   7.400   0.7969   0.02472   0.01681   0.0101  0.0470  1.0000  -3.8129   0.0000   0.0000   0.0000   0.2305
   7.500   0.8060   0.02506   0.01732   0.0107  0.0462  1.0000  -3.8708   0.0000   0.0000   0.0000   0.2299
   7.600   0.8148   0.02561   0.01798   0.0112  0.0454  1.0000  -3.9175   0.0000   0.0000   0.0000   0.2293
   7.700   0.8234   0.02624   0.01872   0.0117  0.0446  1.0000  -3.9602   0.0000   0.0000   0.0000   0.2287
   7.800   0.8317   0.02692   0.01951   0.0122  0.0437  1.0000  -4.0002   0.0000   0.0000   0.0000   0.2281
   7.900   0.8398   0.02763   0.02033   0.0128  0.0429  1.0000  -4.0599   0.0000   0.0000   0.0000   0.2275
   8.000   0.8476   0.02837   0.02118   0.0133  0.0421  1.0000  -4.1230   0.0000   0.0000   0.0000   0.2269
   8.100   0.8553   0.02912   0.02203   0.0139  0.0413  1.0000  -4.1862   0.0000   0.0000   0.0000   0.2263
   8.200   0.8628   0.02987   0.02287   0.0144  0.0406  1.0000  -4.2503   0.0000   0.0000   0.0000   0.2258
   8.300   0.8698   0.03066   0.02376   0.0150  0.0400  1.0000  -4.3121   0.0000   0.0000   0.0000   0.2252
   8.400   0.8766   0.03147   0.02466   0.0156  0.0394  1.0000  -4.3735   0.0000   0.0000   0.0000   0.2246
   8.500   0.8831   0.03232   0.02560   0.0161  0.0388  1.0000  -4.4341   0.0000   0.0000   0.0000   0.2240
   8.600   0.8891   0.03327   0.02664   0.0167  0.0383  1.0000  -4.4908   0.0000   0.0000   0.0000   0.2234
   8.700   0.8945   0.03437   0.02782   0.0173  0.0379  1.0000  -4.5399   0.0000   0.0000   0.0000   0.2227
   8.800   0.8989   0.03565   0.02922   0.0179  0.0375  1.0000  -4.5775   0.0000   0.0000   0.0000   0.2220
   8.900   0.9022   0.03710   0.03080   0.0186  0.0373  1.0000  -4.6030   0.0000   0.0000   0.0000   0.2212
   9.000   0.9046   0.03865   0.03250   0.0194  0.0371  1.0000  -4.6190   0.0000   0.0000   0.0000   0.2204
   9.100   0.9062   0.04024   0.03424   0.0201  0.0370  1.0000  -4.6290   0.0000   0.0000   0.0000   0.2195
   9.200   0.9073   0.04181   0.03597   0.0209  0.0369  1.0000  -4.6360   0.0000   0.0000   0.0000   0.2186
   9.300   0.9080   0.04333   0.03765   0.0217  0.0369  1.0000  -4.6416   0.0000   0.0000   0.0000   0.2177
   9.400   0.9083   0.04482   0.03929   0.0224  0.0370  1.0000  -4.6458   0.0000   0.0000   0.0000   0.2168
   9.500   0.9081   0.04627   0.04088   0.0232  0.0370  1.0000  -4.6479   0.0000   0.0000   0.0000   0.2158
   9.600   0.9074   0.04771   0.04247   0.0240  0.0372  1.0000  -4.6454   0.0000   0.0000   0.0000   0.2149
   9.700   0.9054   0.04919   0.04411   0.0247  0.0373  1.0000  -4.6328   0.0000   0.0000   0.0000   0.2139
   9.800   0.9008   0.05086   0.04596   0.0256  0.0376  1.0000  -4.5966   0.0000   0.0000   0.0000   0.2128
   9.900   0.8905   0.05313   0.04846   0.0264  0.0382  1.0000  -4.5030   0.0000   0.0000   0.0000   0.2114
  10.000   0.8579   0.05712   0.05280   0.0275  0.0394  1.0000  -4.2369   0.0000   0.0000   0.0000   0.2090
  10.100   0.8371   0.06030   0.05614   0.0271  0.0401  1.0000  -4.0880   0.0000   0.0000   0.0000   0.2086
  10.200   0.8196   0.06355   0.05951   0.0255  0.0406  1.0000  -3.9646   0.0000   0.0000   0.0000   0.2096
  10.300   0.8028   0.06722   0.06329   0.0228  0.0411  1.0000  -3.8407   0.0000   0.0000   0.0000   0.2122
  10.400   0.7853   0.07179   0.06794   0.0187  0.0417  1.0000  -3.6953   0.0000   0.0000   0.0000   0.2166
  10.500   0.7661   0.07781   0.07403   0.0132  0.0424  1.0000  -3.5054   0.0000   0.0000   0.0000   0.2232
  10.600   0.7477   0.08506   0.08130   0.0072  0.0435  1.0000  -3.2813   0.0000   0.0000   0.0000   0.2308
  10.700   0.7378   0.08990   0.08613   0.0040  0.0444  1.0000  -3.1546   0.0000   0.0000   0.0000   0.2349
  10.800   0.7319   0.09323   0.08945   0.0022  0.0451  1.0000  -3.0878   0.0000   0.0000   0.0000   0.2373
  10.900   0.7278   0.09588   0.09209   0.0011  0.0457  1.0000  -3.0495   0.0000   0.0000   0.0000   0.2388
  11.000   0.7254   0.09791   0.09411   0.0006  0.0462  1.0000  -3.0396   0.0000   0.0000   0.0000   0.2394
  11.100   0.7263   0.09859   0.09477   0.0015  0.0468  1.0000  -3.0913   0.0000   0.0000   0.0000   0.2379
  11.700   0.6896   0.12769   0.12382  -0.0107  0.0721  1.0000  -2.2766   0.0000   0.0000   0.0000   0.2560
  11.800   0.6728   0.13157   0.12766  -0.0174  0.0701  1.0000  -2.0638   0.0000   0.0000   0.0000   0.2663
  11.900   0.6696   0.13388   0.12995  -0.0193  0.0686  1.0000  -2.0129   0.0000   0.0000   0.0000   0.2693
  12.000   0.6689   0.13583   0.13189  -0.0204  0.0676  1.0000  -1.9921   0.0000   0.0000   0.0000   0.2709
  12.100   0.6690   0.13763   0.13369  -0.0213  0.0667  1.0000  -1.9808   0.0000   0.0000   0.0000   0.2721
  12.200   0.6696   0.13935   0.13541  -0.0221  0.0659  1.0000  -1.9752   0.0000   0.0000   0.0000   0.2731
  12.300   0.6706   0.14100   0.13705  -0.0227  0.0651  1.0000  -1.9739   0.0000   0.0000   0.0000   0.2739
  12.400   0.6720   0.14259   0.13864  -0.0233  0.0644  1.0000  -1.9766   0.0000   0.0000   0.0000   0.2746
  12.500   0.6737   0.14411   0.14016  -0.0237  0.0638  1.0000  -1.9830   0.0000   0.0000   0.0000   0.2751
  12.600   0.6758   0.14555   0.14159  -0.0241  0.0631  1.0000  -1.9950   0.0000   0.0000   0.0000   0.2754
  12.700   0.6790   0.14680   0.14285  -0.0242  0.0624  1.0000  -2.0200   0.0000   0.0000   0.0000   0.2753
  12.800   0.6842   0.14772   0.14378  -0.0237  0.0616  1.0000  -2.0714   0.0000   0.0000   0.0000   0.2742
  12.900   0.6972   0.14749   0.14360  -0.0208  0.0603  1.0000  -2.2255   0.0000   0.0000   0.0000   0.2691
  13.000   0.7007   0.15050   0.14661  -0.0187  0.0592  1.0000  -2.2858   0.0000   0.0000   0.0000   0.2659
  13.100   0.6999   0.15248   0.14858  -0.0201  0.0591  1.0000  -2.2491   0.0000   0.0000   0.0000   0.2679
  13.200   0.6977   0.15453   0.15062  -0.0219  0.0589  1.0000  -2.1985   0.0000   0.0000   0.0000   0.2705
  13.300   0.6946   0.15661   0.15268  -0.0241  0.0587  1.0000  -2.1324   0.0000   0.0000   0.0000   0.2737
  13.400   0.6891   0.15879   0.15485  -0.0273  0.0580  1.0000  -2.0310   0.0000   0.0000   0.0000   0.2786
  13.500   0.6839   0.16086   0.15690  -0.0301  0.0565  1.0000  -1.9403   0.0000   0.0000   0.0000   0.2829
  13.600   0.6833   0.16260   0.15863  -0.0314  0.0550  1.0000  -1.9088   0.0000   0.0000   0.0000   0.2849
  13.700   0.6844   0.16421   0.16024  -0.0323  0.0539  1.0000  -1.8978   0.0000   0.0000   0.0000   0.2859
  13.800   0.6861   0.16576   0.16178  -0.0330  0.0529  1.0000  -1.8938   0.0000   0.0000   0.0000   0.2867
  13.900   0.6882   0.16722   0.16325  -0.0335  0.0520  1.0000  -1.8955   0.0000   0.0000   0.0000   0.2873
  14.000   0.6907   0.16862   0.16465  -0.0340  0.0512  1.0000  -1.9029   0.0000   0.0000   0.0000   0.2876
  14.100   0.6937   0.16994   0.16597  -0.0343  0.0505  1.0000  -1.9171   0.0000   0.0000   0.0000   0.2877
  14.200   0.6974   0.17118   0.16722  -0.0344  0.0498  1.0000  -1.9402   0.0000   0.0000   0.0000   0.2875
  14.300   0.7022   0.17237   0.16841  -0.0342  0.0491  1.0000  -1.9764   0.0000   0.0000   0.0000   0.2867
  14.400   0.7091   0.17355   0.16960  -0.0334  0.0485  1.0000  -2.0363   0.0000   0.0000   0.0000   0.2850
  14.500   0.7163   0.17483   0.17090  -0.0321  0.0479  1.0000  -2.1111   0.0000   0.0000   0.0000   0.2826
  14.600   0.7197   0.17846   0.17451  -0.0307  0.0472  1.0000  -2.1421   0.0000   0.0000   0.0000   0.2803
  14.700   0.7207   0.18034   0.17638  -0.0318  0.0471  1.0000  -2.1108   0.0000   0.0000   0.0000   0.2817
  14.800   0.7217   0.18217   0.17821  -0.0329  0.0470  1.0000  -2.0787   0.0000   0.0000   0.0000   0.2831
  14.900   0.7217   0.18400   0.18004  -0.0343  0.0470  1.0000  -2.0360   0.0000   0.0000   0.0000   0.2849
  15.000   0.7217   0.18575   0.18178  -0.0358  0.0468  1.0000  -1.9904   0.0000   0.0000   0.0000   0.2869


