xflr5 v6.55

 Calculated polar for: NACA 0010

 1 1 Reynolds number fixed          Mach number fixed         

 xtrf =   1.000 (top)        1.000 (bottom)
 Mach =   0.200     Re =     0.055 e 6     Ncrit =   9.000

  alpha     CL        CD       CDp       Cm    Top Xtr Bot Xtr   Cpmin    Chinge    XCp    
 ------- -------- --------- --------- -------- ------- ------- -------- --------- ---------
   0.000   0.0000   0.01698   0.00737  -0.0000  1.0000  1.0000  -0.3535   0.0000   0.0000   0.0000   0.3103
   0.100   0.0010   0.01699   0.00738   0.0014  1.0000  1.0000  -0.3590   0.0000   0.0000   0.0000  -1.1403
   0.200   0.0021   0.01701   0.00739   0.0028  1.0000  1.0000  -0.3645   0.0000   0.0000   0.0000  -1.0819
   0.300   0.0034   0.01704   0.00742   0.0042  1.0000  1.0000  -0.3700   0.0000   0.0000   0.0000  -1.0015
   0.400   0.0048   0.01709   0.00746   0.0055  1.0000  1.0000  -0.3764   0.0000   0.0000   0.0000  -0.9090
   0.500   0.0064   0.01715   0.00752   0.0067  1.0000  1.0000  -0.3829   0.0000   0.0000   0.0000  -0.8250
   0.600   0.0082   0.01723   0.00759   0.0080  1.0000  1.0000  -0.3894   0.0000   0.0000   0.0000  -0.7478
   0.700   0.0102   0.01732   0.00767   0.0091  1.0000  1.0000  -0.3961   0.0000   0.0000   0.0000  -0.6641
   0.800   0.0126   0.01743   0.00777   0.0102  1.0000  1.0000  -0.4039   0.0000   0.0000   0.0000  -0.5773
   0.900   0.0154   0.01755   0.00788   0.0112  1.0000  1.0000  -0.4120   0.0000   0.0000   0.0000  -0.4933
   1.000   0.0185   0.01768   0.00801   0.0120  1.0000  1.0000  -0.4203   0.0000   0.0000   0.0000  -0.4163
   1.100   0.0220   0.01783   0.00816   0.0128  1.0000  1.0000  -0.4291   0.0000   0.0000   0.0000  -0.3482
   1.200   0.0258   0.01800   0.00833   0.0135  1.0000  1.0000  -0.4389   0.0000   0.0000   0.0000  -0.2890
   1.300   0.0298   0.01818   0.00851   0.0141  1.0000  1.0000  -0.4488   0.0000   0.0000   0.0000  -0.2380
   1.400   0.0340   0.01838   0.00871   0.0147  1.0000  1.0000  -0.4589   0.0000   0.0000   0.0000  -0.1940
   1.500   0.0384   0.01860   0.00894   0.0151  1.0000  1.0000  -0.4697   0.0000   0.0000   0.0000  -0.1560
   1.600   0.0429   0.01883   0.00918   0.0155  1.0000  1.0000  -0.4813   0.0000   0.0000   0.0000  -0.1227
   1.700   0.0476   0.01909   0.00944   0.0158  1.0000  1.0000  -0.4929   0.0000   0.0000   0.0000  -0.0936
   1.800   0.0524   0.01936   0.00973   0.0161  1.0000  1.0000  -0.5045   0.0000   0.0000   0.0000  -0.0678
   1.900   0.0820   0.01978   0.01021   0.0118  0.9910  1.0000  -0.5442   0.0000   0.0000   0.0000   0.0988
   2.000   0.1193   0.02018   0.01071   0.0062  0.9789  1.0000  -0.5950   0.0000   0.0000   0.0000   0.1919
   2.100   0.1550   0.02049   0.01112   0.0011  0.9655  1.0000  -0.6511   0.0000   0.0000   0.0000   0.2376
   2.200   0.1882   0.02070   0.01144  -0.0033  0.9508  1.0000  -0.7057   0.0000   0.0000   0.0000   0.2631
   2.300   0.2230   0.02085   0.01176  -0.0079  0.9362  1.0000  -0.7702   0.0000   0.0000   0.0000   0.2811
   2.400   0.2696   0.02084   0.01193  -0.0142  0.9221  1.0000  -0.8575   0.0000   0.0000   0.0000   0.2989
   2.500   0.3052   0.02074   0.01199  -0.0183  0.9050  1.0000  -0.9295   0.0000   0.0000   0.0000   0.3065
   2.600   0.3348   0.02061   0.01198  -0.0211  0.8874  1.0000  -1.0039   0.0000   0.0000   0.0000   0.3096
   2.700   0.3668   0.02034   0.01186  -0.0239  0.8702  1.0000  -1.0861   0.0000   0.0000   0.0000   0.3118
   2.800   0.3959   0.01999   0.01163  -0.0258  0.8524  1.0000  -1.1651   0.0000   0.0000   0.0000   0.3118
   2.900   0.4101   0.01988   0.01158  -0.0254  0.8323  1.0000  -1.2142   0.0000   0.0000   0.0000   0.3087
   3.000   0.4253   0.01972   0.01147  -0.0250  0.8128  1.0000  -1.2664   0.0000   0.0000   0.0000   0.3054
   3.100   0.4408   0.01949   0.01126  -0.0243  0.7940  1.0000  -1.3247   0.0000   0.0000   0.0000   0.3018
   3.200   0.4515   0.01937   0.01115  -0.0230  0.7736  1.0000  -1.3777   0.0000   0.0000   0.0000   0.2975
   3.300   0.4600   0.01933   0.01113  -0.0215  0.7521  1.0000  -1.4250   0.0000   0.0000   0.0000   0.2933
   3.400   0.4692   0.01927   0.01113  -0.0200  0.7311  1.0000  -1.4723   0.0000   0.0000   0.0000   0.2891
   3.500   0.4788   0.01919   0.01099  -0.0184  0.7104  1.0000  -1.5231   0.0000   0.0000   0.0000   0.2848
   3.600   0.4865   0.01920   0.01096  -0.0167  0.6871  1.0000  -1.5694   0.0000   0.0000   0.0000   0.2808
   3.700   0.4938   0.01925   0.01098  -0.0152  0.6629  1.0000  -1.6148   0.0000   0.0000   0.0000   0.2770
   3.800   0.5014   0.01932   0.01098  -0.0136  0.6383  1.0000  -1.6613   0.0000   0.0000   0.0000   0.2734
   3.900   0.5089   0.01941   0.01098  -0.0120  0.6131  1.0000  -1.7083   0.0000   0.0000   0.0000   0.2699
   4.000   0.5164   0.01953   0.01099  -0.0105  0.5870  1.0000  -1.7551   0.0000   0.0000   0.0000   0.2665
   4.100   0.5237   0.01968   0.01101  -0.0090  0.5596  1.0000  -1.8012   0.0000   0.0000   0.0000   0.2633
   4.200   0.5308   0.01987   0.01108  -0.0076  0.5310  1.0000  -1.8465   0.0000   0.0000   0.0000   0.2603
   4.300   0.5377   0.02011   0.01118  -0.0062  0.5012  1.0000  -1.8906   0.0000   0.0000   0.0000   0.2574
   4.400   0.5444   0.02040   0.01131  -0.0048  0.4700  1.0000  -1.9334   0.0000   0.0000   0.0000   0.2548
   4.500   0.5511   0.02073   0.01148  -0.0036  0.4383  1.0000  -1.9752   0.0000   0.0000   0.0000   0.2522
   4.600   0.5579   0.02112   0.01169  -0.0023  0.4070  1.0000  -2.0159   0.0000   0.0000   0.0000   0.2499
   4.700   0.5647   0.02156   0.01193  -0.0012  0.3765  1.0000  -2.0556   0.0000   0.0000   0.0000   0.2478
   4.800   0.5718   0.02205   0.01223  -0.0002  0.3480  1.0000  -2.0941   0.0000   0.0000   0.0000   0.2458
   4.900   0.5791   0.02259   0.01259   0.0008  0.3217  1.0000  -2.1421   0.0000   0.0000   0.0000   0.2441
   5.000   0.5866   0.02313   0.01300   0.0016  0.2977  1.0000  -2.1898   0.0000   0.0000   0.0000   0.2426
   5.100   0.5945   0.02372   0.01347   0.0024  0.2765  1.0000  -2.2370   0.0000   0.0000   0.0000   0.2413
   5.200   0.6031   0.02439   0.01401   0.0031  0.2593  1.0000  -2.2842   0.0000   0.0000   0.0000   0.2401
   5.300   0.6117   0.02502   0.01446   0.0037  0.2439  1.0000  -2.3349   0.0000   0.0000   0.0000   0.2391
   5.400   0.6202   0.02562   0.01512   0.0044  0.2289  1.0000  -2.3776   0.0000   0.0000   0.0000   0.2381
   5.500   0.6288   0.02629   0.01562   0.0049  0.2165  1.0000  -2.4291   0.0000   0.0000   0.0000   0.2372
   5.600   0.6375   0.02686   0.01635   0.0055  0.2048  1.0000  -2.4684   0.0000   0.0000   0.0000   0.2363
   5.700   0.6473   0.02777   0.01707   0.0059  0.1967  1.0000  -2.5165   0.0000   0.0000   0.0000   0.2357
   5.800   0.6567   0.02852   0.01804   0.0065  0.1889  1.0000  -2.5486   0.0000   0.0000   0.0000   0.2349
   5.900   0.6659   0.02920   0.01870   0.0070  0.1814  1.0000  -2.5947   0.0000   0.0000   0.0000   0.2342
   6.000   0.6749   0.03012   0.01953   0.0074  0.1745  1.0000  -2.6405   0.0000   0.0000   0.0000   0.2337
   6.100   0.6831   0.03075   0.02035   0.0081  0.1670  1.0000  -2.6763   0.0000   0.0000   0.0000   0.2329
   6.200   0.6917   0.03135   0.02088   0.0085  0.1601  1.0000  -2.7289   0.0000   0.0000   0.0000   0.2322
   6.300   0.7007   0.03245   0.02192   0.0089  0.1554  1.0000  -2.7706   0.0000   0.0000   0.0000   0.2318
   6.400   0.7089   0.03342   0.02317   0.0095  0.1519  1.0000  -2.7911   0.0000   0.0000   0.0000   0.2310
   6.500   0.7172   0.03445   0.02438   0.0101  0.1485  1.0000  -2.8149   0.0000   0.0000   0.0000   0.2303
   6.600   0.7256   0.03547   0.02553   0.0106  0.1454  1.0000  -2.8428   0.0000   0.0000   0.0000   0.2297
   6.700   0.7341   0.03649   0.02661   0.0111  0.1427  1.0000  -2.8750   0.0000   0.0000   0.0000   0.2292
   6.800   0.7424   0.03760   0.02774   0.0115  0.1402  1.0000  -2.9088   0.0000   0.0000   0.0000   0.2287
   6.900   0.7501   0.03923   0.02928   0.0118  0.1376  1.0000  -2.9434   0.0000   0.0000   0.0000   0.2285
   7.000   0.7550   0.04028   0.03068   0.0126  0.1356  1.0000  -2.9454   0.0000   0.0000   0.0000   0.2274
   7.100   0.7597   0.04145   0.03214   0.0134  0.1329  1.0000  -2.9494   0.0000   0.0000   0.0000   0.2265
   7.200   0.7645   0.04257   0.03347   0.0140  0.1298  1.0000  -2.9618   0.0000   0.0000   0.0000   0.2257
   7.300   0.7707   0.04348   0.03447   0.0146  0.1262  1.0000  -2.9917   0.0000   0.0000   0.0000   0.2251
   7.400   0.7798   0.04419   0.03507   0.0149  0.1226  1.0000  -3.0490   0.0000   0.0000   0.0000   0.2248
   7.500   0.7864   0.04559   0.03646   0.0153  0.1209  1.0000  -3.0788   0.0000   0.0000   0.0000   0.2244
   7.600   0.7914   0.04740   0.03834   0.0156  0.1200  1.0000  -3.0910   0.0000   0.0000   0.0000   0.2240
   7.700   0.7948   0.04918   0.04026   0.0162  0.1195  1.0000  -3.0882   0.0000   0.0000   0.0000   0.2234
   7.800   0.7973   0.05083   0.04212   0.0167  0.1192  1.0000  -3.0788   0.0000   0.0000   0.0000   0.2227
   7.900   0.7993   0.05256   0.04404   0.0173  0.1191  1.0000  -3.0682   0.0000   0.0000   0.0000   0.2220
   8.000   0.8009   0.05436   0.04601   0.0177  0.1191  1.0000  -3.0568   0.0000   0.0000   0.0000   0.2214
   8.100   0.8023   0.05622   0.04802   0.0181  0.1191  1.0000  -3.0448   0.0000   0.0000   0.0000   0.2209
   8.200   0.8036   0.05815   0.05008   0.0185  0.1193  1.0000  -3.0330   0.0000   0.0000   0.0000   0.2205
   8.300   0.8049   0.06015   0.05219   0.0188  0.1195  1.0000  -3.0220   0.0000   0.0000   0.0000   0.2201
   8.400   0.8057   0.06203   0.05422   0.0190  0.1199  1.0000  -3.0111   0.0000   0.0000   0.0000   0.2198
   8.500   0.7713   0.06581   0.05863   0.0182  0.1249  1.0000  -2.7952   0.0000   0.0000   0.0000   0.2198
   8.600   0.7575   0.06896   0.06192   0.0173  0.1272  1.0000  -2.7121   0.0000   0.0000   0.0000   0.2206
   8.700   0.7468   0.07181   0.06484   0.0163  0.1291  1.0000  -2.6493   0.0000   0.0000   0.0000   0.2215
   8.800   0.7384   0.07447   0.06754   0.0154  0.1307  1.0000  -2.5988   0.0000   0.0000   0.0000   0.2225
   8.900   0.7312   0.07688   0.06996   0.0147  0.1322  1.0000  -2.5583   0.0000   0.0000   0.0000   0.2232
   9.000   0.7263   0.07920   0.07229   0.0140  0.1335  1.0000  -2.5268   0.0000   0.0000   0.0000   0.2239
   9.100   0.7243   0.08142   0.07452   0.0135  0.1347  1.0000  -2.5066   0.0000   0.0000   0.0000   0.2244
   9.200   0.7267   0.08348   0.07657   0.0135  0.1359  1.0000  -2.5034   0.0000   0.0000   0.0000   0.2245
   9.300   0.7413   0.08539   0.07847   0.0145  0.1371  1.0000  -2.5592   0.0000   0.0000   0.0000   0.2234
   9.400   0.6783   0.09560   0.08863   0.0003  0.1525  1.0000  -2.1608   0.0000   0.0000   0.0000   0.2425
   9.500   0.6900   0.09708   0.09014   0.0021  0.1550  1.0000  -2.1965   0.0000   0.0000   0.0000   0.2398
   9.600   0.6108   0.11452   0.10742  -0.0226  0.2810  1.0000  -1.5888   0.0000   0.0000   0.0000   0.2801
   9.700   0.6111   0.11588   0.10878  -0.0229  0.2773  1.0000  -1.5831   0.0000   0.0000   0.0000   0.2804
   9.800   0.6133   0.11746   0.11036  -0.0231  0.2751  1.0000  -1.5808   0.0000   0.0000   0.0000   0.2805
   9.900   0.6174   0.11915   0.11205  -0.0231  0.2729  1.0000  -1.5832   0.0000   0.0000   0.0000   0.2803
  10.000   0.6244   0.12107   0.11398  -0.0229  0.2707  1.0000  -1.5929   0.0000   0.0000   0.0000   0.2795
  10.100   0.6352   0.12344   0.11638  -0.0225  0.2688  1.0000  -1.6112   0.0000   0.0000   0.0000   0.2781
  10.200   0.6524   0.12692   0.11991  -0.0216  0.2671  1.0000  -1.6434   0.0000   0.0000   0.0000   0.2759
  10.300   0.6675   0.13121   0.12422  -0.0209  0.2657  1.0000  -1.6665   0.0000   0.0000   0.0000   0.2742
  10.400   0.6414   0.12988   0.12279  -0.0233  0.2643  1.0000  -1.5964   0.0000   0.0000   0.0000   0.2789
  10.500   0.6200   0.12884   0.12167  -0.0252  0.2589  1.0000  -1.5383   0.0000   0.0000   0.0000   0.2829
  10.600   0.6186   0.12997   0.12279  -0.0256  0.2549  1.0000  -1.5275   0.0000   0.0000   0.0000   0.2836
  10.700   0.6211   0.13142   0.12424  -0.0258  0.2516  1.0000  -1.5264   0.0000   0.0000   0.0000   0.2836
  10.800   0.6267   0.13313   0.12596  -0.0257  0.2487  1.0000  -1.5329   0.0000   0.0000   0.0000   0.2830
  10.900   0.6365   0.13533   0.12818  -0.0252  0.2462  1.0000  -1.5498   0.0000   0.0000   0.0000   0.2817
  11.000   0.6556   0.13899   0.13190  -0.0240  0.2438  1.0000  -1.6123   0.0000   0.0000   0.0000   0.2787
  11.100   0.6754   0.14425   0.13719  -0.0229  0.2421  1.0000  -1.6752   0.0000   0.0000   0.0000   0.2761
  11.200   0.6562   0.14326   0.13612  -0.0250  0.2412  1.0000  -1.6055   0.0000   0.0000   0.0000   0.2800
  11.300   0.6355   0.14186   0.13465  -0.0271  0.2383  1.0000  -1.5313   0.0000   0.0000   0.0000   0.2843
  11.400   0.6294   0.14233   0.13510  -0.0280  0.2342  1.0000  -1.5085   0.0000   0.0000   0.0000   0.2860
  11.500   0.6300   0.14357   0.13633  -0.0284  0.2307  1.0000  -1.5093   0.0000   0.0000   0.0000   0.2864
  11.600   0.6337   0.14511   0.13787  -0.0284  0.2275  1.0000  -1.5216   0.0000   0.0000   0.0000   0.2862
  11.700   0.6409   0.14703   0.13981  -0.0282  0.2246  1.0000  -1.5471   0.0000   0.0000   0.0000   0.2853
  11.800   0.6586   0.15048   0.14331  -0.0270  0.2215  1.0000  -1.6108   0.0000   0.0000   0.0000   0.2823
  11.900   0.6747   0.15544   0.14829  -0.0260  0.2190  1.0000  -1.6635   0.0000   0.0000   0.0000   0.2799
  12.000   0.6625   0.15504   0.14784  -0.0277  0.2182  1.0000  -1.6142   0.0000   0.0000   0.0000   0.2830
  12.100   0.6501   0.15447   0.14722  -0.0293  0.2165  1.0000  -1.5646   0.0000   0.0000   0.0000   0.2861
  12.200   0.6427   0.15453   0.14725  -0.0305  0.2131  1.0000  -1.5340   0.0000   0.0000   0.0000   0.2883
  12.300   0.6422   0.15548   0.14819  -0.0310  0.2089  1.0000  -1.5299   0.0000   0.0000   0.0000   0.2890
  12.400   0.6479   0.15703   0.14975  -0.0308  0.2041  1.0000  -1.5525   0.0000   0.0000   0.0000   0.2882
  12.500   0.6846   0.16447   0.15727  -0.0272  0.1971  1.0000  -1.6965   0.0000   0.0000   0.0000   0.2807
  12.600   0.6740   0.16412   0.15688  -0.0290  0.1965  1.0000  -1.6487   0.0000   0.0000   0.0000   0.2837
  12.700   0.6633   0.16361   0.15633  -0.0307  0.1953  1.0000  -1.6016   0.0000   0.0000   0.0000   0.2867
  12.800   0.6552   0.16341   0.15610  -0.0321  0.1927  1.0000  -1.5652   0.0000   0.0000   0.0000   0.2892
  12.900   0.6532   0.16409   0.15677  -0.0328  0.1889  1.0000  -1.5530   0.0000   0.0000   0.0000   0.2904
  13.000   0.6557   0.16538   0.15805  -0.0331  0.1851  1.0000  -1.5604   0.0000   0.0000   0.0000   0.2905
  13.100   0.6615   0.16714   0.15982  -0.0330  0.1821  1.0000  -1.5810   0.0000   0.0000   0.0000   0.2898
  13.200   0.6709   0.16965   0.16236  -0.0325  0.1798  1.0000  -1.6158   0.0000   0.0000   0.0000   0.2884
  13.300   0.6968   0.17598   0.16877  -0.0304  0.1772  1.0000  -1.7134   0.0000   0.0000   0.0000   0.2837
  13.400   0.7031   0.17955   0.17232  -0.0304  0.1764  1.0000  -1.7275   0.0000   0.0000   0.0000   0.2833
  13.500   0.6929   0.17884   0.17157  -0.0322  0.1759  1.0000  -1.6785   0.0000   0.0000   0.0000   0.2864
  13.600   0.6822   0.17782   0.17050  -0.0341  0.1750  1.0000  -1.6282   0.0000   0.0000   0.0000   0.2896
  13.700   0.6739   0.17708   0.16972  -0.0357  0.1731  1.0000  -1.5867   0.0000   0.0000   0.0000   0.2924
  13.800   0.6714   0.17754   0.17018  -0.0367  0.1704  1.0000  -1.5681   0.0000   0.0000   0.0000   0.2940
  13.900   0.6723   0.17865   0.17128  -0.0374  0.1678  1.0000  -1.5640   0.0000   0.0000   0.0000   0.2948
  14.000   0.6748   0.18001   0.17264  -0.0378  0.1654  1.0000  -1.5675   0.0000   0.0000   0.0000   0.2951
  14.100   0.6786   0.18158   0.17422  -0.0380  0.1631  1.0000  -1.5776   0.0000   0.0000   0.0000   0.2951
  14.200   0.6841   0.18349   0.17613  -0.0380  0.1611  1.0000  -1.5959   0.0000   0.0000   0.0000   0.2945
  14.300   0.6930   0.18624   0.17897  -0.0376  0.1592  1.0000  -1.6258   0.0000   0.0000   0.0000   0.2931
  14.400   0.7206   0.19463   0.18745  -0.0352  0.1569  1.0000  -1.7299   0.0000   0.0000   0.0000   0.2879
  14.500   0.7226   0.19708   0.18986  -0.0358  0.1564  1.0000  -1.7247   0.0000   0.0000   0.0000   0.2885
  14.600   0.7146   0.19620   0.18895  -0.0376  0.1560  1.0000  -1.6808   0.0000   0.0000   0.0000   0.2914
  14.700   0.7063   0.19493   0.18764  -0.0392  0.1554  1.0000  -1.6369   0.0000   0.0000   0.0000   0.2941
  14.800   0.6995   0.19389   0.18657  -0.0409  0.1541  1.0000  -1.5968   0.0000   0.0000   0.0000   0.2969
  14.900   0.6968   0.19390   0.18656  -0.0423  0.1520  1.0000  -1.5721   0.0000   0.0000   0.0000   0.2989
  15.000   0.6973   0.19478   0.18743  -0.0432  0.1498  1.0000  -1.5622   0.0000   0.0000   0.0000   0.3000


