xflr5 v6.55

 Calculated polar for: NACA 0010

 1 1 Reynolds number fixed          Mach number fixed         

 xtrf =   1.000 (top)        1.000 (bottom)
 Mach =   0.200     Re =     0.175 e 6     Ncrit =   9.000

  alpha     CL        CD       CDp       Cm    Top Xtr Bot Xtr   Cpmin    Chinge    XCp    
 ------- -------- --------- --------- -------- ------- ------- -------- --------- ---------
   0.000   0.0000   0.01092   0.00568  -0.0000  0.9858  0.9858  -0.3529   0.0000   0.0000   0.0000   0.3116
   0.100   0.0270   0.01091   0.00567  -0.0032  0.9833  0.9884  -0.3760   0.0000   0.0000   0.0000   0.3660
   0.200   0.0542   0.01089   0.00566  -0.0064  0.9810  0.9909  -0.4014   0.0000   0.0000   0.0000   0.3661
   0.300   0.0802   0.01085   0.00562  -0.0094  0.9776  0.9932  -0.4277   0.0000   0.0000   0.0000   0.3648
   0.400   0.1063   0.01078   0.00556  -0.0123  0.9728  0.9947  -0.4556   0.0000   0.0000   0.0000   0.3641
   0.500   0.1326   0.01070   0.00549  -0.0154  0.9681  0.9965  -0.4865   0.0000   0.0000   0.0000   0.3637
   0.700   0.1808   0.01051   0.00534  -0.0204  0.9544  1.0000  -0.5509   0.0000   0.0000   0.0000   0.3610
   0.800   0.2010   0.01040   0.00524  -0.0222  0.9457  1.0000  -0.5842   0.0000   0.0000   0.0000   0.3583
   0.900   0.2155   0.01031   0.00515  -0.0228  0.9327  1.0000  -0.6113   0.0000   0.0000   0.0000   0.3535
   1.000   0.2312   0.01020   0.00504  -0.0235  0.9213  1.0000  -0.6422   0.0000   0.0000   0.0000   0.3494
   1.100   0.2427   0.01011   0.00495  -0.0234  0.9067  1.0000  -0.6702   0.0000   0.0000   0.0000   0.3440
   1.200   0.2534   0.01003   0.00486  -0.0231  0.8925  1.0000  -0.6976   0.0000   0.0000   0.0000   0.3387
   1.300   0.2636   0.00995   0.00476  -0.0226  0.8784  1.0000  -0.7246   0.0000   0.0000   0.0000   0.3332
   1.400   0.2723   0.00990   0.00472  -0.0219  0.8624  1.0000  -0.7517   0.0000   0.0000   0.0000   0.3278
   1.500   0.2814   0.00985   0.00463  -0.0211  0.8478  1.0000  -0.7819   0.0000   0.0000   0.0000   0.3226
   1.600   0.2900   0.00982   0.00456  -0.0204  0.8314  1.0000  -0.8115   0.0000   0.0000   0.0000   0.3177
   1.700   0.2988   0.00979   0.00450  -0.0196  0.8153  1.0000  -0.8417   0.0000   0.0000   0.0000   0.3131
   1.800   0.3076   0.00978   0.00443  -0.0189  0.7994  1.0000  -0.8723   0.0000   0.0000   0.0000   0.3087
   1.900   0.3166   0.00978   0.00439  -0.0182  0.7820  1.0000  -0.9031   0.0000   0.0000   0.0000   0.3049
   2.000   0.3256   0.00980   0.00434  -0.0176  0.7655  1.0000  -0.9344   0.0000   0.0000   0.0000   0.3011
   2.100   0.3347   0.00982   0.00430  -0.0169  0.7476  1.0000  -0.9714   0.0000   0.0000   0.0000   0.2977
   2.200   0.3439   0.00985   0.00428  -0.0164  0.7298  1.0000  -1.0093   0.0000   0.0000   0.0000   0.2946
   2.300   0.3530   0.00991   0.00424  -0.0157  0.7124  1.0000  -1.0475   0.0000   0.0000   0.0000   0.2915
   2.400   0.3622   0.00995   0.00424  -0.0152  0.6934  1.0000  -1.0861   0.0000   0.0000   0.0000   0.2888
   2.500   0.3714   0.01001   0.00423  -0.0146  0.6752  1.0000  -1.1251   0.0000   0.0000   0.0000   0.2862
   2.600   0.3805   0.01009   0.00421  -0.0140  0.6564  1.0000  -1.1644   0.0000   0.0000   0.0000   0.2836
   2.700   0.3898   0.01016   0.00423  -0.0135  0.6369  1.0000  -1.2041   0.0000   0.0000   0.0000   0.2814
   2.800   0.3990   0.01025   0.00423  -0.0130  0.6183  1.0000  -1.2441   0.0000   0.0000   0.0000   0.2792
   2.900   0.4081   0.01035   0.00424  -0.0124  0.5985  1.0000  -1.2866   0.0000   0.0000   0.0000   0.2771
   3.000   0.4173   0.01043   0.00427  -0.0119  0.5784  1.0000  -1.3353   0.0000   0.0000   0.0000   0.2752
   3.100   0.4264   0.01054   0.00430  -0.0114  0.5588  1.0000  -1.3842   0.0000   0.0000   0.0000   0.2733
   3.200   0.4354   0.01067   0.00433  -0.0109  0.5386  1.0000  -1.4333   0.0000   0.0000   0.0000   0.2715
   3.300   0.4446   0.01077   0.00437  -0.0104  0.5177  1.0000  -1.4832   0.0000   0.0000   0.0000   0.2698
   3.400   0.4536   0.01090   0.00447  -0.0099  0.4968  1.0000  -1.5286   0.0000   0.0000   0.0000   0.2682
   3.500   0.4624   0.01105   0.00451  -0.0094  0.4757  1.0000  -1.5778   0.0000   0.0000   0.0000   0.2665
   3.600   0.4713   0.01119   0.00457  -0.0089  0.4537  1.0000  -1.6280   0.0000   0.0000   0.0000   0.2650
   3.700   0.4803   0.01133   0.00464  -0.0084  0.4314  1.0000  -1.6788   0.0000   0.0000   0.0000   0.2636
   3.800   0.4891   0.01149   0.00471  -0.0079  0.4089  1.0000  -1.7298   0.0000   0.0000   0.0000   0.2622
   3.900   0.4978   0.01167   0.00479  -0.0074  0.3859  1.0000  -1.7809   0.0000   0.0000   0.0000   0.2608
   4.000   0.5064   0.01186   0.00488  -0.0069  0.3625  1.0000  -1.8322   0.0000   0.0000   0.0000   0.2595
   4.100   0.5150   0.01207   0.00497  -0.0064  0.3383  1.0000  -1.8835   0.0000   0.0000   0.0000   0.2582
   4.200   0.5235   0.01229   0.00508  -0.0059  0.3132  1.0000  -1.9348   0.0000   0.0000   0.0000   0.2570
   4.300   0.5319   0.01252   0.00520  -0.0054  0.2875  1.0000  -1.9862   0.0000   0.0000   0.0000   0.2558
   4.400   0.5403   0.01277   0.00533  -0.0049  0.2618  1.0000  -2.0374   0.0000   0.0000   0.0000   0.2546
   4.500   0.5486   0.01304   0.00548  -0.0044  0.2369  1.0000  -2.0882   0.0000   0.0000   0.0000   0.2535
   4.600   0.5569   0.01334   0.00566  -0.0039  0.2134  1.0000  -2.1467   0.0000   0.0000   0.0000   0.2524
   4.700   0.5651   0.01365   0.00586  -0.0034  0.1916  1.0000  -2.2079   0.0000   0.0000   0.0000   0.2513
   4.800   0.5732   0.01399   0.00608  -0.0028  0.1722  1.0000  -2.2685   0.0000   0.0000   0.0000   0.2502
   4.900   0.5811   0.01436   0.00631  -0.0023  0.1555  1.0000  -2.3285   0.0000   0.0000   0.0000   0.2491
   5.000   0.5896   0.01465   0.00655  -0.0018  0.1413  1.0000  -2.3904   0.0000   0.0000   0.0000   0.2481
   5.100   0.5980   0.01497   0.00682  -0.0012  0.1296  1.0000  -2.4511   0.0000   0.0000   0.0000   0.2471
   5.200   0.6055   0.01540   0.00713  -0.0006  0.1200  1.0000  -2.5094   0.0000   0.0000   0.0000   0.2460
   5.300   0.6145   0.01565   0.00740  -0.0001  0.1123  1.0000  -2.5704   0.0000   0.0000   0.0000   0.2450
   5.400   0.6226   0.01601   0.00775   0.0005  0.1057  1.0000  -2.6258   0.0000   0.0000   0.0000   0.2440
   5.500   0.6306   0.01643   0.00815   0.0012  0.1000  1.0000  -2.6792   0.0000   0.0000   0.0000   0.2429
   5.600   0.6396   0.01670   0.00844   0.0017  0.0947  1.0000  -2.7396   0.0000   0.0000   0.0000   0.2421
   5.700   0.6478   0.01705   0.00874   0.0022  0.0900  1.0000  -2.8017   0.0000   0.0000   0.0000   0.2412
   5.800   0.6556   0.01756   0.00920   0.0028  0.0856  1.0000  -2.8568   0.0000   0.0000   0.0000   0.2402
   5.900   0.6650   0.01777   0.00947   0.0033  0.0813  1.0000  -2.9212   0.0000   0.0000   0.0000   0.2395
   6.000   0.6739   0.01804   0.00972   0.0038  0.0774  1.0000  -2.9882   0.0000   0.0000   0.0000   0.2388
   6.100   0.6818   0.01851   0.01014   0.0043  0.0741  1.0000  -3.0493   0.0000   0.0000   0.0000   0.2380
   6.200   0.6900   0.01912   0.01073   0.0049  0.0716  1.0000  -3.1004   0.0000   0.0000   0.0000   0.2371
   6.300   0.6994   0.01944   0.01113   0.0054  0.0693  1.0000  -3.1589   0.0000   0.0000   0.0000   0.2364
   6.400   0.7085   0.01982   0.01154   0.0059  0.0670  1.0000  -3.2172   0.0000   0.0000   0.0000   0.2357
   6.500   0.7176   0.02021   0.01195   0.0064  0.0648  1.0000  -3.2772   0.0000   0.0000   0.0000   0.2351
   6.600   0.7265   0.02063   0.01236   0.0069  0.0629  1.0000  -3.3387   0.0000   0.0000   0.0000   0.2345
   6.700   0.7352   0.02120   0.01290   0.0073  0.0611  1.0000  -3.3972   0.0000   0.0000   0.0000   0.2339
   6.800   0.7432   0.02243   0.01410   0.0078  0.0592  1.0000  -3.4325   0.0000   0.0000   0.0000   0.2333
   6.900   0.7527   0.02281   0.01459   0.0083  0.0583  1.0000  -3.4847   0.0000   0.0000   0.0000   0.2326
   7.000   0.7621   0.02326   0.01514   0.0088  0.0570  1.0000  -3.5352   0.0000   0.0000   0.0000   0.2320
   7.100   0.7713   0.02371   0.01567   0.0093  0.0554  1.0000  -3.5882   0.0000   0.0000   0.0000   0.2315
   7.200   0.7803   0.02411   0.01613   0.0097  0.0536  1.0000  -3.6477   0.0000   0.0000   0.0000   0.2310
   7.300   0.7892   0.02444   0.01649   0.0101  0.0517  1.0000  -3.7147   0.0000   0.0000   0.0000   0.2305
   7.400   0.7979   0.02479   0.01683   0.0105  0.0500  1.0000  -3.7877   0.0000   0.0000   0.0000   0.2301
   7.500   0.8061   0.02546   0.01752   0.0108  0.0485  1.0000  -3.8557   0.0000   0.0000   0.0000   0.2297
   7.600   0.8130   0.02708   0.01922   0.0113  0.0472  1.0000  -3.8756   0.0000   0.0000   0.0000   0.2292
   7.700   0.8214   0.02766   0.01992   0.0119  0.0467  1.0000  -3.9171   0.0000   0.0000   0.0000   0.2285
   7.800   0.8296   0.02826   0.02066   0.0125  0.0460  1.0000  -3.9557   0.0000   0.0000   0.0000   0.2279
   7.900   0.8375   0.02898   0.02153   0.0131  0.0453  1.0000  -4.0062   0.0000   0.0000   0.0000   0.2272
   8.000   0.8450   0.02979   0.02249   0.0137  0.0446  1.0000  -4.0597   0.0000   0.0000   0.0000   0.2265
   8.100   0.8520   0.03068   0.02354   0.0143  0.0439  1.0000  -4.1089   0.0000   0.0000   0.0000   0.2258
   8.200   0.8586   0.03164   0.02465   0.0150  0.0433  1.0000  -4.1544   0.0000   0.0000   0.0000   0.2251
   8.300   0.8647   0.03265   0.02581   0.0157  0.0427  1.0000  -4.1964   0.0000   0.0000   0.0000   0.2243
   8.400   0.8703   0.03371   0.02703   0.0164  0.0421  1.0000  -4.2350   0.0000   0.0000   0.0000   0.2236
   8.500   0.8755   0.03483   0.02830   0.0171  0.0416  1.0000  -4.2702   0.0000   0.0000   0.0000   0.2228
   8.600   0.8800   0.03600   0.02962   0.0178  0.0412  1.0000  -4.3013   0.0000   0.0000   0.0000   0.2220
   8.700   0.8839   0.03724   0.03102   0.0186  0.0409  1.0000  -4.3274   0.0000   0.0000   0.0000   0.2212
   8.800   0.8870   0.03857   0.03251   0.0193  0.0406  1.0000  -4.3469   0.0000   0.0000   0.0000   0.2203
   8.900   0.8891   0.04001   0.03411   0.0201  0.0405  1.0000  -4.3578   0.0000   0.0000   0.0000   0.2194
   9.000   0.8900   0.04158   0.03586   0.0209  0.0404  1.0000  -4.3582   0.0000   0.0000   0.0000   0.2184
   9.100   0.8896   0.04330   0.03776   0.0218  0.0404  1.0000  -4.3463   0.0000   0.0000   0.0000   0.2174
   9.200   0.8876   0.04517   0.03982   0.0226  0.0406  1.0000  -4.3212   0.0000   0.0000   0.0000   0.2163
   9.300   0.8838   0.04717   0.04202   0.0234  0.0408  1.0000  -4.2843   0.0000   0.0000   0.0000   0.2152
   9.400   0.8785   0.04927   0.04429   0.0242  0.0411  1.0000  -4.2389   0.0000   0.0000   0.0000   0.2141
   9.500   0.8720   0.05141   0.04659   0.0249  0.0414  1.0000  -4.1885   0.0000   0.0000   0.0000   0.2131
   9.600   0.8645   0.05353   0.04886   0.0255  0.0418  1.0000  -4.1366   0.0000   0.0000   0.0000   0.2121
   9.700   0.8561   0.05560   0.05105   0.0259  0.0421  1.0000  -4.0851   0.0000   0.0000   0.0000   0.2111
   9.800   0.8464   0.05745   0.05300   0.0266  0.0424  1.0000  -4.0366   0.0000   0.0000   0.0000   0.2099
   9.900   0.8363   0.05937   0.05501   0.0268  0.0427  1.0000  -3.9869   0.0000   0.0000   0.0000   0.2091
  10.000   0.8259   0.06146   0.05718   0.0265  0.0430  1.0000  -3.9341   0.0000   0.0000   0.0000   0.2089
  10.100   0.8152   0.06376   0.05955   0.0256  0.0432  1.0000  -3.8768   0.0000   0.0000   0.0000   0.2095
  10.200   0.8043   0.06636   0.06222   0.0241  0.0435  1.0000  -3.8128   0.0000   0.0000   0.0000   0.2108
  10.300   0.7930   0.06934   0.06526   0.0218  0.0438  1.0000  -3.7397   0.0000   0.0000   0.0000   0.2131
  10.400   0.7814   0.07281   0.06878   0.0189  0.0441  1.0000  -3.6545   0.0000   0.0000   0.0000   0.2163
  10.500   0.7698   0.07675   0.07277   0.0154  0.0445  1.0000  -3.5570   0.0000   0.0000   0.0000   0.2203
  10.600   0.7591   0.08101   0.07705   0.0119  0.0450  1.0000  -3.4542   0.0000   0.0000   0.0000   0.2246
  10.700   0.7502   0.08506   0.08111   0.0089  0.0455  1.0000  -3.3629   0.0000   0.0000   0.0000   0.2283
  10.800   0.7438   0.08846   0.08451   0.0069  0.0460  1.0000  -3.2987   0.0000   0.0000   0.0000   0.2309
  10.900   0.7400   0.09096   0.08700   0.0059  0.0464  1.0000  -3.2711   0.0000   0.0000   0.0000   0.2321
  11.000   0.7439   0.09115   0.08714   0.0081  0.0470  1.0000  -3.3474   0.0000   0.0000   0.0000   0.2290
  11.100   0.6724   0.11903   0.11500  -0.0128  0.0771  1.0000  -2.0919   0.0000   0.0000   0.0000   0.2602
  11.200   0.6736   0.12060   0.11657  -0.0132  0.0765  1.0000  -2.0994   0.0000   0.0000   0.0000   0.2606
  11.300   0.6753   0.12211   0.11808  -0.0135  0.0760  1.0000  -2.1113   0.0000   0.0000   0.0000   0.2609
  11.400   0.6775   0.12355   0.11952  -0.0136  0.0755  1.0000  -2.1281   0.0000   0.0000   0.0000   0.2609
  11.500   0.6803   0.12493   0.12090  -0.0136  0.0750  1.0000  -2.1506   0.0000   0.0000   0.0000   0.2607
  11.600   0.6835   0.12627   0.12224  -0.0135  0.0746  1.0000  -2.1780   0.0000   0.0000   0.0000   0.2603
  11.700   0.6872   0.12758   0.12355  -0.0132  0.0742  1.0000  -2.2116   0.0000   0.0000   0.0000   0.2597
  11.800   0.6917   0.12888   0.12486  -0.0126  0.0738  1.0000  -2.2533   0.0000   0.0000   0.0000   0.2586
  11.900   0.6963   0.13034   0.12633  -0.0117  0.0734  1.0000  -2.2995   0.0000   0.0000   0.0000   0.2571
  12.100   0.6979   0.13577   0.13177  -0.0113  0.0725  1.0000  -2.3038   0.0000   0.0000   0.0000   0.2563
  12.200   0.6963   0.13793   0.13392  -0.0128  0.0724  1.0000  -2.2692   0.0000   0.0000   0.0000   0.2584
  12.300   0.6931   0.14017   0.13615  -0.0147  0.0723  1.0000  -2.2199   0.0000   0.0000   0.0000   0.2612
  12.400   0.6886   0.14241   0.13833  -0.0171  0.0720  1.0000  -2.1585   0.0000   0.0000   0.0000   0.2647
  12.500   0.6785   0.14488   0.14077  -0.0214  0.0710  1.0000  -2.0243   0.0000   0.0000   0.0000   0.2715
  12.600   0.6723   0.14711   0.14298  -0.0244  0.0692  1.0000  -1.9375   0.0000   0.0000   0.0000   0.2761
  12.700   0.6715   0.14892   0.14479  -0.0256  0.0681  1.0000  -1.9132   0.0000   0.0000   0.0000   0.2779
  12.800   0.6718   0.15061   0.14648  -0.0265  0.0671  1.0000  -1.9012   0.0000   0.0000   0.0000   0.2791
  12.900   0.6727   0.15222   0.14808  -0.0272  0.0661  1.0000  -1.8956   0.0000   0.0000   0.0000   0.2800
  13.000   0.6742   0.15374   0.14960  -0.0278  0.0652  1.0000  -1.8968   0.0000   0.0000   0.0000   0.2807
  13.100   0.6764   0.15514   0.15099  -0.0282  0.0641  1.0000  -1.9071   0.0000   0.0000   0.0000   0.2811
  13.200   0.6799   0.15634   0.15220  -0.0283  0.0630  1.0000  -1.9335   0.0000   0.0000   0.0000   0.2809
  13.300   0.6871   0.15708   0.15299  -0.0275  0.0616  1.0000  -2.0010   0.0000   0.0000   0.0000   0.2791
  13.400   0.7060   0.15846   0.15439  -0.0212  0.0592  1.0000  -2.2523   0.0000   0.0000   0.0000   0.2689
  13.500   0.7057   0.16038   0.15631  -0.0224  0.0592  1.0000  -2.2203   0.0000   0.0000   0.0000   0.2706
  13.600   0.7051   0.16232   0.15824  -0.0238  0.0591  1.0000  -2.1845   0.0000   0.0000   0.0000   0.2725
  13.700   0.7037   0.16427   0.16018  -0.0254  0.0590  1.0000  -2.1386   0.0000   0.0000   0.0000   0.2748
  13.800   0.7018   0.16615   0.16205  -0.0273  0.0588  1.0000  -2.0848   0.0000   0.0000   0.0000   0.2774
  13.900   0.6981   0.16798   0.16387  -0.0298  0.0584  1.0000  -2.0068   0.0000   0.0000   0.0000   0.2812
  14.000   0.6919   0.16967   0.16553  -0.0329  0.0573  1.0000  -1.9051   0.0000   0.0000   0.0000   0.2861
  14.100   0.6903   0.17135   0.16721  -0.0347  0.0559  1.0000  -1.8557   0.0000   0.0000   0.0000   0.2886
  14.200   0.6912   0.17298   0.16883  -0.0357  0.0547  1.0000  -1.8355   0.0000   0.0000   0.0000   0.2900
  14.300   0.6929   0.17454   0.17039  -0.0365  0.0536  1.0000  -1.8256   0.0000   0.0000   0.0000   0.2909
  14.400   0.6950   0.17604   0.17189  -0.0371  0.0526  1.0000  -1.8219   0.0000   0.0000   0.0000   0.2915
  14.500   0.6974   0.17747   0.17332  -0.0376  0.0517  1.0000  -1.8237   0.0000   0.0000   0.0000   0.2920
  14.600   0.7003   0.17883   0.17468  -0.0380  0.0509  1.0000  -1.8311   0.0000   0.0000   0.0000   0.2922
  14.700   0.7036   0.18014   0.17599  -0.0383  0.0501  1.0000  -1.8453   0.0000   0.0000   0.0000   0.2922
  14.800   0.7075   0.18143   0.17728  -0.0383  0.0494  1.0000  -1.8681   0.0000   0.0000   0.0000   0.2918
  14.900   0.7125   0.18273   0.17859  -0.0381  0.0488  1.0000  -1.9032   0.0000   0.0000   0.0000   0.2910
  15.000   0.7197   0.18423   0.18010  -0.0373  0.0483  1.0000  -1.9615   0.0000   0.0000   0.0000   0.2892


