xflr5 v6.55

 Calculated polar for: NACA 0010

 1 1 Reynolds number fixed          Mach number fixed         

 xtrf =   1.000 (top)        1.000 (bottom)
 Mach =   0.200     Re =     0.200 e 6     Ncrit =   9.000

  alpha     CL        CD       CDp       Cm    Top Xtr Bot Xtr   Cpmin    Chinge    XCp    
 ------- -------- --------- --------- -------- ------- ------- -------- --------- ---------
   0.000   0.0000   0.01005   0.00513  -0.0000  0.9676  0.9676  -0.3532   0.0000   0.0000   0.0000   0.3027
   0.100   0.0261   0.01004   0.00512  -0.0029  0.9654  0.9696  -0.3758   0.0000   0.0000   0.0000   0.3592
   0.200   0.0506   0.01002   0.00510  -0.0055  0.9621  0.9721  -0.3994   0.0000   0.0000   0.0000   0.3562
   0.300   0.0718   0.00999   0.00507  -0.0074  0.9563  0.9756  -0.4218   0.0000   0.0000   0.0000   0.3505
   0.400   0.0933   0.00995   0.00504  -0.0093  0.9508  0.9791  -0.4457   0.0000   0.0000   0.0000   0.3475
   0.500   0.1171   0.00989   0.00499  -0.0117  0.9459  0.9810  -0.4740   0.0000   0.0000   0.0000   0.3477
   0.600   0.1388   0.00983   0.00493  -0.0137  0.9380  0.9833  -0.5019   0.0000   0.0000   0.0000   0.3464
   0.700   0.1603   0.00976   0.00486  -0.0156  0.9296  0.9859  -0.5322   0.0000   0.0000   0.0000   0.3450
   0.800   0.1808   0.00968   0.00479  -0.0173  0.9209  0.9888  -0.5636   0.0000   0.0000   0.0000   0.3432
   0.900   0.1989   0.00963   0.00474  -0.0184  0.9093  0.9925  -0.5947   0.0000   0.0000   0.0000   0.3405
   1.000   0.2185   0.00954   0.00464  -0.0199  0.8981  0.9949  -0.6284   0.0000   0.0000   0.0000   0.3388
   1.100   0.2367   0.00946   0.00456  -0.0211  0.8841  0.9980  -0.6648   0.0000   0.0000   0.0000   0.3368
   1.200   0.2511   0.00940   0.00448  -0.0215  0.8700  1.0000  -0.6968   0.0000   0.0000   0.0000   0.3334
   1.300   0.2596   0.00935   0.00438  -0.0208  0.8546  1.0000  -0.7216   0.0000   0.0000   0.0000   0.3276
   1.400   0.2682   0.00931   0.00434  -0.0201  0.8389  1.0000  -0.7482   0.0000   0.0000   0.0000   0.3224
   1.500   0.2769   0.00928   0.00426  -0.0193  0.8237  1.0000  -0.7778   0.0000   0.0000   0.0000   0.3173
   1.600   0.2857   0.00926   0.00420  -0.0187  0.8067  1.0000  -0.8076   0.0000   0.0000   0.0000   0.3129
   1.700   0.2947   0.00926   0.00414  -0.0181  0.7908  1.0000  -0.8380   0.0000   0.0000   0.0000   0.3087
   1.800   0.3037   0.00926   0.00408  -0.0175  0.7737  1.0000  -0.8687   0.0000   0.0000   0.0000   0.3047
   1.900   0.3130   0.00928   0.00404  -0.0169  0.7564  1.0000  -0.9000   0.0000   0.0000   0.0000   0.3013
   2.000   0.3222   0.00931   0.00399  -0.0164  0.7397  1.0000  -0.9316   0.0000   0.0000   0.0000   0.2979
   2.100   0.3316   0.00934   0.00397  -0.0159  0.7212  1.0000  -0.9689   0.0000   0.0000   0.0000   0.2949
   2.200   0.3411   0.00938   0.00394  -0.0154  0.7036  1.0000  -1.0073   0.0000   0.0000   0.0000   0.2921
   2.300   0.3504   0.00944   0.00392  -0.0149  0.6854  1.0000  -1.0459   0.0000   0.0000   0.0000   0.2894
   2.400   0.3600   0.00949   0.00391  -0.0144  0.6666  1.0000  -1.0851   0.0000   0.0000   0.0000   0.2870
   2.500   0.3693   0.00956   0.00390  -0.0139  0.6485  1.0000  -1.1244   0.0000   0.0000   0.0000   0.2846
   2.600   0.3786   0.00964   0.00390  -0.0135  0.6292  1.0000  -1.1640   0.0000   0.0000   0.0000   0.2824
   2.700   0.3881   0.00971   0.00391  -0.0130  0.6102  1.0000  -1.2041   0.0000   0.0000   0.0000   0.2803
   2.800   0.3974   0.00981   0.00392  -0.0126  0.5914  1.0000  -1.2443   0.0000   0.0000   0.0000   0.2783
   2.900   0.4067   0.00991   0.00394  -0.0121  0.5712  1.0000  -1.2878   0.0000   0.0000   0.0000   0.2764
   3.000   0.4161   0.01000   0.00396  -0.0117  0.5517  1.0000  -1.3369   0.0000   0.0000   0.0000   0.2746
   3.100   0.4252   0.01011   0.00399  -0.0112  0.5325  1.0000  -1.3861   0.0000   0.0000   0.0000   0.2729
   3.200   0.4344   0.01023   0.00402  -0.0108  0.5116  1.0000  -1.4357   0.0000   0.0000   0.0000   0.2712
   3.300   0.4437   0.01034   0.00406  -0.0103  0.4910  1.0000  -1.4859   0.0000   0.0000   0.0000   0.2696
   3.400   0.4528   0.01047   0.00416  -0.0099  0.4706  1.0000  -1.5316   0.0000   0.0000   0.0000   0.2681
   3.500   0.4617   0.01062   0.00420  -0.0094  0.4497  1.0000  -1.5811   0.0000   0.0000   0.0000   0.2666
   3.600   0.4708   0.01075   0.00426  -0.0090  0.4277  1.0000  -1.6319   0.0000   0.0000   0.0000   0.2652
   3.700   0.4799   0.01090   0.00433  -0.0085  0.4058  1.0000  -1.6831   0.0000   0.0000   0.0000   0.2638
   3.800   0.4888   0.01106   0.00440  -0.0081  0.3839  1.0000  -1.7345   0.0000   0.0000   0.0000   0.2625
   3.900   0.4976   0.01123   0.00448  -0.0076  0.3615  1.0000  -1.7861   0.0000   0.0000   0.0000   0.2612
   4.000   0.5064   0.01142   0.00456  -0.0071  0.3381  1.0000  -1.8378   0.0000   0.0000   0.0000   0.2600
   4.100   0.5150   0.01163   0.00466  -0.0067  0.3140  1.0000  -1.8896   0.0000   0.0000   0.0000   0.2588
   4.200   0.5237   0.01184   0.00476  -0.0062  0.2897  1.0000  -1.9416   0.0000   0.0000   0.0000   0.2576
   4.300   0.5323   0.01207   0.00488  -0.0057  0.2656  1.0000  -1.9936   0.0000   0.0000   0.0000   0.2565
   4.400   0.5408   0.01231   0.00501  -0.0053  0.2421  1.0000  -2.0455   0.0000   0.0000   0.0000   0.2554
   4.500   0.5493   0.01257   0.00516  -0.0048  0.2190  1.0000  -2.0970   0.0000   0.0000   0.0000   0.2543
   4.600   0.5577   0.01285   0.00533  -0.0043  0.1966  1.0000  -2.1592   0.0000   0.0000   0.0000   0.2532
   4.700   0.5660   0.01315   0.00551  -0.0038  0.1761  1.0000  -2.2217   0.0000   0.0000   0.0000   0.2522
   4.800   0.5744   0.01345   0.00571  -0.0033  0.1580  1.0000  -2.2844   0.0000   0.0000   0.0000   0.2511
   4.900   0.5830   0.01373   0.00591  -0.0029  0.1426  1.0000  -2.3476   0.0000   0.0000   0.0000   0.2501
   5.000   0.5915   0.01403   0.00615  -0.0023  0.1300  1.0000  -2.4099   0.0000   0.0000   0.0000   0.2491
   5.100   0.5992   0.01442   0.00642  -0.0018  0.1195  1.0000  -2.4697   0.0000   0.0000   0.0000   0.2480
   5.200   0.6084   0.01464   0.00667  -0.0013  0.1111  1.0000  -2.5334   0.0000   0.0000   0.0000   0.2471
   5.300   0.6160   0.01505   0.00698  -0.0006  0.1037  1.0000  -2.5925   0.0000   0.0000   0.0000   0.2460
   5.400   0.6250   0.01530   0.00731  -0.0001  0.0979  1.0000  -2.6482   0.0000   0.0000   0.0000   0.2450
   5.500   0.6337   0.01557   0.00756   0.0004  0.0922  1.0000  -2.7107   0.0000   0.0000   0.0000   0.2441
   5.600   0.6407   0.01610   0.00799   0.0011  0.0869  1.0000  -2.7654   0.0000   0.0000   0.0000   0.2430
   5.700   0.6503   0.01626   0.00822   0.0016  0.0827  1.0000  -2.8313   0.0000   0.0000   0.0000   0.2422
   5.800   0.6593   0.01649   0.00844   0.0020  0.0783  1.0000  -2.8988   0.0000   0.0000   0.0000   0.2415
   5.900   0.6673   0.01687   0.00877   0.0026  0.0744  1.0000  -2.9626   0.0000   0.0000   0.0000   0.2406
   6.000   0.6752   0.01736   0.00924   0.0032  0.0714  1.0000  -3.0176   0.0000   0.0000   0.0000   0.2396
   6.100   0.6844   0.01763   0.00957   0.0037  0.0688  1.0000  -3.0796   0.0000   0.0000   0.0000   0.2389
   6.200   0.6934   0.01794   0.00990   0.0042  0.0662  1.0000  -3.1420   0.0000   0.0000   0.0000   0.2381
   6.300   0.7022   0.01827   0.01022   0.0047  0.0639  1.0000  -3.2060   0.0000   0.0000   0.0000   0.2374
   6.400   0.7107   0.01868   0.01061   0.0052  0.0618  1.0000  -3.2690   0.0000   0.0000   0.0000   0.2367
   6.500   0.7179   0.01953   0.01142   0.0059  0.0595  1.0000  -3.3149   0.0000   0.0000   0.0000   0.2358
   6.600   0.7271   0.01995   0.01189   0.0064  0.0582  1.0000  -3.3706   0.0000   0.0000   0.0000   0.2351
   6.700   0.7365   0.02033   0.01233   0.0069  0.0568  1.0000  -3.4275   0.0000   0.0000   0.0000   0.2345
   6.800   0.7458   0.02075   0.01282   0.0074  0.0553  1.0000  -3.4830   0.0000   0.0000   0.0000   0.2338
   6.900   0.7550   0.02115   0.01326   0.0078  0.0536  1.0000  -3.5418   0.0000   0.0000   0.0000   0.2333
   7.000   0.7640   0.02150   0.01363   0.0083  0.0519  1.0000  -3.6069   0.0000   0.0000   0.0000   0.2327
   7.100   0.7729   0.02185   0.01396   0.0087  0.0502  1.0000  -3.6780   0.0000   0.0000   0.0000   0.2323
   7.200   0.7811   0.02246   0.01455   0.0091  0.0484  1.0000  -3.7428   0.0000   0.0000   0.0000   0.2318
   7.300   0.7888   0.02351   0.01565   0.0096  0.0468  1.0000  -3.7819   0.0000   0.0000   0.0000   0.2312
   7.400   0.7981   0.02379   0.01603   0.0100  0.0458  1.0000  -3.8427   0.0000   0.0000   0.0000   0.2306
   7.500   0.8071   0.02430   0.01668   0.0105  0.0449  1.0000  -3.8962   0.0000   0.0000   0.0000   0.2301
   7.600   0.8159   0.02487   0.01735   0.0110  0.0440  1.0000  -3.9443   0.0000   0.0000   0.0000   0.2295
   7.700   0.8245   0.02548   0.01805   0.0115  0.0431  1.0000  -3.9909   0.0000   0.0000   0.0000   0.2289
   7.800   0.8330   0.02611   0.01876   0.0120  0.0422  1.0000  -4.0372   0.0000   0.0000   0.0000   0.2284
   7.900   0.8413   0.02674   0.01947   0.0125  0.0414  1.0000  -4.1051   0.0000   0.0000   0.0000   0.2279
   8.000   0.8494   0.02738   0.02019   0.0130  0.0406  1.0000  -4.1764   0.0000   0.0000   0.0000   0.2273
   8.100   0.8573   0.02802   0.02091   0.0135  0.0398  1.0000  -4.2487   0.0000   0.0000   0.0000   0.2268
   8.200   0.8650   0.02870   0.02165   0.0140  0.0391  1.0000  -4.3215   0.0000   0.0000   0.0000   0.2262
   8.300   0.8724   0.02945   0.02246   0.0145  0.0384  1.0000  -4.3927   0.0000   0.0000   0.0000   0.2257
   8.400   0.8792   0.03039   0.02346   0.0150  0.0378  1.0000  -4.4561   0.0000   0.0000   0.0000   0.2252
   8.500   0.8848   0.03167   0.02484   0.0156  0.0373  1.0000  -4.5015   0.0000   0.0000   0.0000   0.2246
   8.600   0.8885   0.03339   0.02671   0.0163  0.0368  1.0000  -4.5204   0.0000   0.0000   0.0000   0.2238
   8.700   0.8902   0.03542   0.02895   0.0171  0.0365  1.0000  -4.5164   0.0000   0.0000   0.0000   0.2228
   8.800   0.8928   0.03695   0.03064   0.0179  0.0363  1.0000  -4.5286   0.0000   0.0000   0.0000   0.2219
   8.900   0.8964   0.03804   0.03190   0.0187  0.0362  1.0000  -4.5579   0.0000   0.0000   0.0000   0.2210
   9.000   0.8992   0.03927   0.03330   0.0195  0.0361  1.0000  -4.5791   0.0000   0.0000   0.0000   0.2201
   9.100   0.9011   0.04062   0.03482   0.0203  0.0360  1.0000  -4.5932   0.0000   0.0000   0.0000   0.2192
   9.200   0.9021   0.04208   0.03644   0.0211  0.0359  1.0000  -4.6008   0.0000   0.0000   0.0000   0.2182
   9.300   0.9021   0.04363   0.03814   0.0219  0.0359  1.0000  -4.6026   0.0000   0.0000   0.0000   0.2173
   9.400   0.9012   0.04526   0.03992   0.0227  0.0360  1.0000  -4.5988   0.0000   0.0000   0.0000   0.2163
   9.500   0.8995   0.04697   0.04177   0.0234  0.0360  1.0000  -4.5899   0.0000   0.0000   0.0000   0.2154
   9.600   0.8968   0.04878   0.04370   0.0241  0.0361  1.0000  -4.5756   0.0000   0.0000   0.0000   0.2144
   9.700   0.8932   0.05073   0.04577   0.0247  0.0362  1.0000  -4.5552   0.0000   0.0000   0.0000   0.2136
   9.900   0.8886   0.05407   0.04930   0.0258  0.0365  1.0000  -4.5412   0.0000   0.0000   0.0000   0.2120
  10.000   0.8868   0.05521   0.05054   0.0264  0.0366  1.0000  -4.5473   0.0000   0.0000   0.0000   0.2112
  10.100   0.8830   0.05638   0.05179   0.0271  0.0367  1.0000  -4.5439   0.0000   0.0000   0.0000   0.2101
  10.200   0.8776   0.05756   0.05306   0.0279  0.0368  1.0000  -4.5332   0.0000   0.0000   0.0000   0.2089
  10.300   0.8714   0.05883   0.05442   0.0284  0.0369  1.0000  -4.5159   0.0000   0.0000   0.0000   0.2080
  10.400   0.8644   0.06025   0.05592   0.0285  0.0370  1.0000  -4.4903   0.0000   0.0000   0.0000   0.2075
  10.500   0.8558   0.06192   0.05769   0.0281  0.0372  1.0000  -4.4478   0.0000   0.0000   0.0000   0.2074
  10.600   0.7469   0.08575   0.08209   0.0061  0.0423  1.0000  -3.2551   0.0000   0.0000   0.0000   0.2322
  10.700   0.7334   0.09161   0.08794   0.0023  0.0435  1.0000  -3.0774   0.0000   0.0000   0.0000   0.2374
  10.800   0.7270   0.09503   0.09134   0.0004  0.0444  1.0000  -3.0024   0.0000   0.0000   0.0000   0.2398
  10.900   0.7233   0.09763   0.09393  -0.0007  0.0450  1.0000  -2.9642   0.0000   0.0000   0.0000   0.2413
  11.000   0.7210   0.09976   0.09605  -0.0013  0.0457  1.0000  -2.9487   0.0000   0.0000   0.0000   0.2421
  11.100   0.7200   0.10127   0.09755  -0.0013  0.0464  1.0000  -2.9636   0.0000   0.0000   0.0000   0.2419
  11.200   0.6956   0.11609   0.11236  -0.0050  0.0721  1.0000  -2.4016   0.0000   0.0000   0.0000   0.2480
  11.300   0.6736   0.12161   0.11782  -0.0138  0.0691  1.0000  -2.1228   0.0000   0.0000   0.0000   0.2614
  11.400   0.6714   0.12385   0.12004  -0.0152  0.0682  1.0000  -2.0891   0.0000   0.0000   0.0000   0.2635
  11.500   0.6703   0.12589   0.12208  -0.0163  0.0674  1.0000  -2.0675   0.0000   0.0000   0.0000   0.2651
  11.600   0.6698   0.12781   0.12399  -0.0173  0.0666  1.0000  -2.0528   0.0000   0.0000   0.0000   0.2664
  11.700   0.6699   0.12963   0.12582  -0.0181  0.0659  1.0000  -2.0436   0.0000   0.0000   0.0000   0.2675
  11.800   0.6703   0.13138   0.12755  -0.0188  0.0652  1.0000  -2.0392   0.0000   0.0000   0.0000   0.2685
  11.900   0.6712   0.13305   0.12922  -0.0194  0.0646  1.0000  -2.0390   0.0000   0.0000   0.0000   0.2693
  12.000   0.6724   0.13465   0.13082  -0.0199  0.0640  1.0000  -2.0428   0.0000   0.0000   0.0000   0.2699
  12.100   0.6740   0.13618   0.13235  -0.0204  0.0634  1.0000  -2.0506   0.0000   0.0000   0.0000   0.2704
  12.200   0.6760   0.13766   0.13383  -0.0207  0.0628  1.0000  -2.0626   0.0000   0.0000   0.0000   0.2707
  12.300   0.6784   0.13908   0.13524  -0.0210  0.0623  1.0000  -2.0791   0.0000   0.0000   0.0000   0.2709
  12.400   0.6816   0.14033   0.13650  -0.0210  0.0618  1.0000  -2.1067   0.0000   0.0000   0.0000   0.2707
  12.500   0.6867   0.14124   0.13741  -0.0205  0.0612  1.0000  -2.1601   0.0000   0.0000   0.0000   0.2695
  12.600   0.6977   0.14119   0.13742  -0.0178  0.0601  1.0000  -2.2955   0.0000   0.0000   0.0000   0.2651
  12.700   0.6985   0.14441   0.14062  -0.0163  0.0592  1.0000  -2.3264   0.0000   0.0000   0.0000   0.2628
  12.800   0.6975   0.14651   0.14272  -0.0178  0.0591  1.0000  -2.2894   0.0000   0.0000   0.0000   0.2649
  12.900   0.6960   0.14858   0.14478  -0.0195  0.0589  1.0000  -2.2455   0.0000   0.0000   0.0000   0.2673
  13.000   0.6926   0.15079   0.14698  -0.0217  0.0587  1.0000  -2.1786   0.0000   0.0000   0.0000   0.2706
  13.100   0.6872   0.15311   0.14928  -0.0248  0.0581  1.0000  -2.0803   0.0000   0.0000   0.0000   0.2753
  13.200   0.6816   0.15549   0.15164  -0.0279  0.0566  1.0000  -1.9800   0.0000   0.0000   0.0000   0.2801
  13.300   0.6803   0.15730   0.15344  -0.0293  0.0550  1.0000  -1.9438   0.0000   0.0000   0.0000   0.2822
  13.400   0.6813   0.15885   0.15499  -0.0302  0.0535  1.0000  -1.9364   0.0000   0.0000   0.0000   0.2833
  13.500   0.6832   0.16029   0.15643  -0.0307  0.0523  1.0000  -1.9403   0.0000   0.0000   0.0000   0.2839
  13.600   0.6854   0.16173   0.15787  -0.0312  0.0515  1.0000  -1.9463   0.0000   0.0000   0.0000   0.2844
  13.700   0.6880   0.16309   0.15923  -0.0316  0.0508  1.0000  -1.9585   0.0000   0.0000   0.0000   0.2846
  13.800   0.6912   0.16436   0.16050  -0.0318  0.0501  1.0000  -1.9784   0.0000   0.0000   0.0000   0.2846
  13.900   0.6953   0.16555   0.16169  -0.0318  0.0495  1.0000  -2.0092   0.0000   0.0000   0.0000   0.2841
  14.000   0.7010   0.16665   0.16280  -0.0313  0.0489  1.0000  -2.0579   0.0000   0.0000   0.0000   0.2830
  14.100   0.7074   0.16765   0.16381  -0.0305  0.0483  1.0000  -2.1229   0.0000   0.0000   0.0000   0.2812
  14.200   0.7140   0.16901   0.16519  -0.0290  0.0477  1.0000  -2.2010   0.0000   0.0000   0.0000   0.2786
  14.300   0.7142   0.17260   0.16876  -0.0287  0.0471  1.0000  -2.1835   0.0000   0.0000   0.0000   0.2782
  14.400   0.7150   0.17452   0.17067  -0.0298  0.0471  1.0000  -2.1505   0.0000   0.0000   0.0000   0.2796
  14.500   0.7158   0.17639   0.17254  -0.0310  0.0470  1.0000  -2.1166   0.0000   0.0000   0.0000   0.2811
  14.600   0.7156   0.17830   0.17444  -0.0324  0.0469  1.0000  -2.0700   0.0000   0.0000   0.0000   0.2830
  14.700   0.7151   0.18013   0.17626  -0.0340  0.0468  1.0000  -2.0184   0.0000   0.0000   0.0000   0.2853
  14.800   0.7136   0.18187   0.17799  -0.0361  0.0465  1.0000  -1.9508   0.0000   0.0000   0.0000   0.2881
  14.900   0.7092   0.18335   0.17946  -0.0389  0.0458  1.0000  -1.8546   0.0000   0.0000   0.0000   0.2923
  15.000   0.7079   0.18505   0.18115  -0.0409  0.0446  1.0000  -1.7875   0.0000   0.0000   0.0000   0.2952


