xflr5 v6.55

 Calculated polar for: NACA 0010

 1 1 Reynolds number fixed          Mach number fixed         

 xtrf =   1.000 (top)        1.000 (bottom)
 Mach =   0.200     Re =     0.025 e 6     Ncrit =   9.000

  alpha     CL        CD       CDp       Cm    Top Xtr Bot Xtr   Cpmin    Chinge    XCp    
 ------- -------- --------- --------- -------- ------- ------- -------- --------- ---------
   0.000  -0.0000   0.02381   0.00918   0.0000  1.0000  1.0000  -0.3539   0.0000   0.0000   0.0000   0.4162
   0.100   0.0039   0.02382   0.00921   0.0010  1.0000  1.0000  -0.3613   0.0000   0.0000   0.0000  -0.0043
   0.200   0.0077   0.02383   0.00922   0.0019  1.0000  1.0000  -0.3687   0.0000   0.0000   0.0000  -0.0040
   0.300   0.0116   0.02386   0.00925   0.0029  1.0000  1.0000  -0.3761   0.0000   0.0000   0.0000  -0.0045
   0.400   0.0154   0.02389   0.00928   0.0038  1.0000  1.0000  -0.3843   0.0000   0.0000   0.0000  -0.0055
   0.500   0.0192   0.02393   0.00932   0.0048  1.0000  1.0000  -0.3924   0.0000   0.0000   0.0000  -0.0060
   0.600   0.0230   0.02399   0.00938   0.0057  1.0000  1.0000  -0.4006   0.0000   0.0000   0.0000  -0.0055
   0.700   0.0268   0.02406   0.00945   0.0066  1.0000  1.0000  -0.4094   0.0000   0.0000   0.0000  -0.0041
   0.800   0.0308   0.02413   0.00952   0.0075  1.0000  1.0000  -0.4186   0.0000   0.0000   0.0000  -0.0018
   0.900   0.0348   0.02422   0.00961   0.0084  1.0000  1.0000  -0.4278   0.0000   0.0000   0.0000   0.0014
   1.000   0.0388   0.02432   0.00972   0.0092  1.0000  1.0000  -0.4372   0.0000   0.0000   0.0000   0.0052
   1.100   0.0430   0.02443   0.00983   0.0100  1.0000  1.0000  -0.4477   0.0000   0.0000   0.0000   0.0095
   1.200   0.0472   0.02455   0.00996   0.0107  1.0000  1.0000  -0.4582   0.0000   0.0000   0.0000   0.0143
   1.300   0.0515   0.02468   0.01010   0.0115  1.0000  1.0000  -0.4688   0.0000   0.0000   0.0000   0.0194
   1.400   0.0559   0.02483   0.01026   0.0121  1.0000  1.0000  -0.4798   0.0000   0.0000   0.0000   0.0248
   1.500   0.0604   0.02499   0.01043   0.0128  1.0000  1.0000  -0.4919   0.0000   0.0000   0.0000   0.0303
   1.600   0.0649   0.02516   0.01062   0.0134  1.0000  1.0000  -0.5040   0.0000   0.0000   0.0000   0.0358
   1.700   0.0695   0.02535   0.01082   0.0139  1.0000  1.0000  -0.5161   0.0000   0.0000   0.0000   0.0414
   1.800   0.0741   0.02555   0.01104   0.0145  1.0000  1.0000  -0.5281   0.0000   0.0000   0.0000   0.0470
   1.900   0.0787   0.02577   0.01127   0.0149  1.0000  1.0000  -0.5419   0.0000   0.0000   0.0000   0.0525
   2.000   0.0834   0.02600   0.01153   0.0154  1.0000  1.0000  -0.5556   0.0000   0.0000   0.0000   0.0580
   2.100   0.0880   0.02625   0.01180   0.0157  1.0000  1.0000  -0.5693   0.0000   0.0000   0.0000   0.0634
   2.200   0.0927   0.02652   0.01209   0.0161  1.0000  1.0000  -0.5829   0.0000   0.0000   0.0000   0.0688
   2.300   0.0974   0.02680   0.01240   0.0164  1.0000  1.0000  -0.5964   0.0000   0.0000   0.0000   0.0741
   2.400   0.1021   0.02711   0.01273   0.0166  1.0000  1.0000  -0.6113   0.0000   0.0000   0.0000   0.0793
   2.500   0.1067   0.02743   0.01309   0.0168  1.0000  1.0000  -0.6267   0.0000   0.0000   0.0000   0.0845
   2.600   0.1113   0.02777   0.01346   0.0170  1.0000  1.0000  -0.6420   0.0000   0.0000   0.0000   0.0896
   2.700   0.1159   0.02814   0.01386   0.0171  1.0000  1.0000  -0.6570   0.0000   0.0000   0.0000   0.0947
   2.800   0.1204   0.02852   0.01428   0.0171  1.0000  1.0000  -0.6718   0.0000   0.0000   0.0000   0.0996
   2.900   0.1249   0.02893   0.01472   0.0172  1.0000  1.0000  -0.6863   0.0000   0.0000   0.0000   0.1046
   3.000   0.1294   0.02936   0.01526   0.0171  1.0000  1.0000  -0.7006   0.0000   0.0000   0.0000   0.1095
   3.100   0.1338   0.02981   0.01575   0.0171  1.0000  1.0000  -0.7162   0.0000   0.0000   0.0000   0.1144
   3.200   0.1381   0.03029   0.01627   0.0169  1.0000  1.0000  -0.7325   0.0000   0.0000   0.0000   0.1193
   3.300   0.1424   0.03079   0.01681   0.0168  1.0000  1.0000  -0.7485   0.0000   0.0000   0.0000   0.1241
   3.400   0.1466   0.03132   0.01738   0.0165  1.0000  1.0000  -0.7641   0.0000   0.0000   0.0000   0.1289
   3.500   0.1508   0.03187   0.01797   0.0163  1.0000  1.0000  -0.7793   0.0000   0.0000   0.0000   0.1337
   3.600   0.1549   0.03245   0.01859   0.0160  1.0000  1.0000  -0.7942   0.0000   0.0000   0.0000   0.1385
   3.700   0.1589   0.03305   0.01924   0.0156  1.0000  1.0000  -0.8085   0.0000   0.0000   0.0000   0.1432
   3.800   0.1629   0.03368   0.01991   0.0153  1.0000  1.0000  -0.8224   0.0000   0.0000   0.0000   0.1479
   3.900   0.1668   0.03434   0.02062   0.0148  1.0000  1.0000  -0.8358   0.0000   0.0000   0.0000   0.1525
   4.000   0.2274   0.03662   0.02325   0.0031  0.9663  1.0000  -0.9430   0.0000   0.0000   0.0000   0.2296
   4.100   0.2940   0.03865   0.02570  -0.0085  0.9187  1.0000  -1.0730   0.0000   0.0000   0.0000   0.2732
   4.200   0.3523   0.04000   0.02748  -0.0170  0.8697  1.0000  -1.1924   0.0000   0.0000   0.0000   0.2931
   4.400   0.4946   0.04013   0.02890  -0.0289  0.7360  1.0000  -1.5512   0.0000   0.0000   0.0000   0.3043
   4.500   0.5355   0.03914   0.02818  -0.0272  0.6815  1.0000  -1.6810   0.0000   0.0000   0.0000   0.2968
   4.600   0.5482   0.03923   0.02835  -0.0249  0.6479  1.0000  -1.7306   0.0000   0.0000   0.0000   0.2915
   4.700   0.5611   0.03921   0.02836  -0.0221  0.6131  1.0000  -1.7825   0.0000   0.0000   0.0000   0.2855
   4.800   0.5734   0.03927   0.02843  -0.0194  0.5805  1.0000  -1.8314   0.0000   0.0000   0.0000   0.2799
   4.900   0.5841   0.03937   0.02849  -0.0166  0.5497  1.0000  -1.8761   0.0000   0.0000   0.0000   0.2744
   5.000   0.5931   0.03976   0.02884  -0.0142  0.5225  1.0000  -1.9120   0.0000   0.0000   0.0000   0.2700
   5.100   0.6018   0.04018   0.02920  -0.0120  0.4969  1.0000  -1.9468   0.0000   0.0000   0.0000   0.2659
   5.200   0.6111   0.04060   0.02954  -0.0098  0.4727  1.0000  -1.9829   0.0000   0.0000   0.0000   0.2619
   5.300   0.6222   0.04097   0.02976  -0.0075  0.4498  1.0000  -2.0350   0.0000   0.0000   0.0000   0.2579
   5.400   0.6248   0.04223   0.03116  -0.0069  0.4332  1.0000  -2.0440   0.0000   0.0000   0.0000   0.2570
   5.500   0.6326   0.04296   0.03183  -0.0054  0.4150  1.0000  -2.0820   0.0000   0.0000   0.0000   0.2543
   5.600   0.6421   0.04367   0.03248  -0.0039  0.3982  1.0000  -2.1243   0.0000   0.0000   0.0000   0.2518
   5.700   0.6460   0.04517   0.03409  -0.0036  0.3879  1.0000  -2.1334   0.0000   0.0000   0.0000   0.2513
   5.800   0.6534   0.04609   0.03501  -0.0025  0.3739  1.0000  -2.1641   0.0000   0.0000   0.0000   0.2495
   5.900   0.6592   0.04723   0.03615  -0.0016  0.3622  1.0000  -2.1886   0.0000   0.0000   0.0000   0.2481
   6.000   0.6628   0.04853   0.03755  -0.0012  0.3516  1.0000  -2.1999   0.0000   0.0000   0.0000   0.2473
   6.100   0.6742   0.04925   0.03826   0.0004  0.3394  1.0000  -2.2482   0.0000   0.0000   0.0000   0.2449
   6.200   0.6746   0.05122   0.04043   0.0000  0.3354  1.0000  -2.2348   0.0000   0.0000   0.0000   0.2454
   6.300   0.6756   0.05314   0.04249  -0.0002  0.3315  1.0000  -2.2258   0.0000   0.0000   0.0000   0.2457
   6.400   0.6777   0.05489   0.04434  -0.0002  0.3270  1.0000  -2.2242   0.0000   0.0000   0.0000   0.2457
   6.500   0.6941   0.05528   0.04454   0.0019  0.3146  1.0000  -2.2978   0.0000   0.0000   0.0000   0.2426
   6.600   0.6915   0.05737   0.04679   0.0014  0.3122  1.0000  -2.2753   0.0000   0.0000   0.0000   0.2433
   6.700   0.6889   0.05944   0.04899   0.0009  0.3098  1.0000  -2.2549   0.0000   0.0000   0.0000   0.2439
   6.800   0.6865   0.06147   0.05110   0.0005  0.3072  1.0000  -2.2368   0.0000   0.0000   0.0000   0.2445
   6.900   0.6847   0.06342   0.05311   0.0001  0.3043  1.0000  -2.2225   0.0000   0.0000   0.0000   0.2449
   7.000   0.6852   0.06513   0.05486   0.0001  0.3003  1.0000  -2.2196   0.0000   0.0000   0.0000   0.2449
   7.100   0.7050   0.06548   0.05510   0.0025  0.2893  1.0000  -2.3032   0.0000   0.0000   0.0000   0.2414
   7.200   0.7029   0.06770   0.05738   0.0020  0.2892  1.0000  -2.2829   0.0000   0.0000   0.0000   0.2422
   7.300   0.7010   0.06993   0.05966   0.0014  0.2892  1.0000  -2.2631   0.0000   0.0000   0.0000   0.2430
   7.400   0.6992   0.07217   0.06193   0.0007  0.2894  1.0000  -2.2442   0.0000   0.0000   0.0000   0.2438
   7.500   0.6978   0.07441   0.06420   0.0001  0.2897  1.0000  -2.2267   0.0000   0.0000   0.0000   0.2447
   7.600   0.6970   0.07665   0.06646  -0.0005  0.2901  1.0000  -2.2111   0.0000   0.0000   0.0000   0.2455
   7.800   0.6518   0.08332   0.07307  -0.0075  0.3049  1.0000  -2.0124   0.0000   0.0000   0.0000   0.2561
   7.900   0.6477   0.08561   0.07533  -0.0086  0.3070  1.0000  -1.9867   0.0000   0.0000   0.0000   0.2578
   8.000   0.6454   0.08787   0.07756  -0.0097  0.3090  1.0000  -1.9664   0.0000   0.0000   0.0000   0.2593
   8.100   0.6450   0.09010   0.07977  -0.0105  0.3109  1.0000  -1.9518   0.0000   0.0000   0.0000   0.2606
   8.200   0.6468   0.09233   0.08200  -0.0112  0.3127  1.0000  -1.9436   0.0000   0.0000   0.0000   0.2616
   8.300   0.6518   0.09462   0.08430  -0.0116  0.3144  1.0000  -1.9443   0.0000   0.0000   0.0000   0.2621
   8.500   0.6173   0.09961   0.08909  -0.0175  0.3333  1.0000  -1.7989   0.0000   0.0000   0.0000   0.2722
   8.600   0.6227   0.10206   0.09155  -0.0182  0.3376  1.0000  -1.7975   0.0000   0.0000   0.0000   0.2731
   8.900   0.5929   0.10932   0.09853  -0.0258  0.3861  1.0000  -1.6435   0.0000   0.0000   0.0000   0.2870
   9.000   0.5003   0.11295   0.10187  -0.0436  0.6777  1.0000  -1.3137   0.0000   0.0000   0.0000   0.3292
   9.100   0.5001   0.11358   0.10250  -0.0429  0.6667  1.0000  -1.3131   0.0000   0.0000   0.0000   0.3278
   9.200   0.5322   0.12003   0.10905  -0.0465  0.6539  1.0000  -1.3570   0.0000   0.0000   0.0000   0.3295
   9.300   0.5228   0.11948   0.10846  -0.0451  0.6518  1.0000  -1.3409   0.0000   0.0000   0.0000   0.3283
   9.400   0.5132   0.11867   0.10762  -0.0434  0.6443  1.0000  -1.3261   0.0000   0.0000   0.0000   0.3265
   9.500   0.5153   0.11992   0.10888  -0.0434  0.6385  1.0000  -1.3265   0.0000   0.0000   0.0000   0.3260
   9.600   0.5208   0.12178   0.11076  -0.0439  0.6342  1.0000  -1.3310   0.0000   0.0000   0.0000   0.3261
   9.700   0.5302   0.12439   0.11340  -0.0449  0.6301  1.0000  -1.3407   0.0000   0.0000   0.0000   0.3264
   9.800   0.5457   0.12847   0.11753  -0.0466  0.6265  1.0000  -1.3574   0.0000   0.0000   0.0000   0.3273
   9.900   0.5505   0.13087   0.11992  -0.0472  0.6240  1.0000  -1.3592   0.0000   0.0000   0.0000   0.3275
  10.000   0.5341   0.12857   0.11756  -0.0448  0.6179  1.0000  -1.3351   0.0000   0.0000   0.0000   0.3255
  10.100   0.5336   0.12921   0.11820  -0.0444  0.6099  1.0000  -1.3319   0.0000   0.0000   0.0000   0.3246
  10.200   0.5433   0.13167   0.12069  -0.0451  0.6024  1.0000  -1.3420   0.0000   0.0000   0.0000   0.3244
  10.300   0.5663   0.13758   0.12665  -0.0473  0.5946  1.0000  -1.3685   0.0000   0.0000   0.0000   0.3251
  10.400   0.5519   0.13558   0.12460  -0.0455  0.5903  1.0000  -1.3461   0.0000   0.0000   0.0000   0.3238
  10.500   0.5488   0.13553   0.12454  -0.0446  0.5799  1.0000  -1.3398   0.0000   0.0000   0.0000   0.3225
  10.600   0.5812   0.14297   0.13218  -0.0471  0.5654  1.0000  -1.3786   0.0000   0.0000   0.0000   0.3225
  10.700   0.5672   0.14100   0.13016  -0.0455  0.5621  1.0000  -1.3564   0.0000   0.0000   0.0000   0.3216
  10.800   0.5608   0.14033   0.12946  -0.0445  0.5530  1.0000  -1.3449   0.0000   0.0000   0.0000   0.3205
  10.900   0.5760   0.14374   0.13293  -0.0452  0.5415  1.0000  -1.3624   0.0000   0.0000   0.0000   0.3197
  11.000   0.5994   0.15040   0.13963  -0.0473  0.5365  1.0000  -1.3867   0.0000   0.0000   0.0000   0.3202
  11.100   0.5837   0.14788   0.13705  -0.0458  0.5337  1.0000  -1.3614   0.0000   0.0000   0.0000   0.3195
  11.200   0.5752   0.14678   0.13592  -0.0448  0.5266  1.0000  -1.3462   0.0000   0.0000   0.0000   0.3188
  11.300   0.5783   0.14806   0.13721  -0.0448  0.5195  1.0000  -1.3459   0.0000   0.0000   0.0000   0.3183
  11.400   0.5894   0.15108   0.14026  -0.0454  0.5131  1.0000  -1.3560   0.0000   0.0000   0.0000   0.3179
  11.500   0.6175   0.15907   0.14835  -0.0477  0.5079  1.0000  -1.3856   0.0000   0.0000   0.0000   0.3182
  11.600   0.6047   0.15709   0.14628  -0.0466  0.5059  1.0000  -1.3632   0.0000   0.0000   0.0000   0.3179
  11.700   0.5929   0.15508   0.14423  -0.0456  0.5007  1.0000  -1.3428   0.0000   0.0000   0.0000   0.3175
  11.800   0.5923   0.15556   0.14471  -0.0453  0.4935  1.0000  -1.3371   0.0000   0.0000   0.0000   0.3171
  11.900   0.5996   0.15775   0.14692  -0.0456  0.4869  1.0000  -1.3417   0.0000   0.0000   0.0000   0.3166
  12.000   0.6179   0.16297   0.15220  -0.0467  0.4811  1.0000  -1.3599   0.0000   0.0000   0.0000   0.3162
  12.100   0.6270   0.16686   0.15608  -0.0475  0.4781  1.0000  -1.3639   0.0000   0.0000   0.0000   0.3164
  12.200   0.6138   0.16429   0.15346  -0.0466  0.4752  1.0000  -1.3406   0.0000   0.0000   0.0000   0.3163
  12.300   0.6079   0.16342   0.15256  -0.0461  0.4688  1.0000  -1.3272   0.0000   0.0000   0.0000   0.3161
  12.400   0.6114   0.16473   0.15388  -0.0462  0.4614  1.0000  -1.3266   0.0000   0.0000   0.0000   0.3157
  12.500   0.6487   0.17557   0.16482  -0.0480  0.4504  1.0000  -1.3950   0.0000   0.0000   0.0000   0.3144
  12.600   0.6366   0.17321   0.16241  -0.0474  0.4490  1.0000  -1.3701   0.0000   0.0000   0.0000   0.3146
  12.700   0.6260   0.17105   0.16021  -0.0468  0.4456  1.0000  -1.3483   0.0000   0.0000   0.0000   0.3148
  12.800   0.6226   0.17064   0.15978  -0.0466  0.4385  1.0000  -1.3421   0.0000   0.0000   0.0000   0.3147
  12.900   0.6316   0.17317   0.16234  -0.0467  0.4290  1.0000  -1.3635   0.0000   0.0000   0.0000   0.3138
  13.000   0.6540   0.18077   0.16998  -0.0476  0.4216  1.0000  -1.4101   0.0000   0.0000   0.0000   0.3128
  13.100   0.6433   0.17845   0.16761  -0.0473  0.4194  1.0000  -1.3866   0.0000   0.0000   0.0000   0.3132
  13.200   0.6368   0.17713   0.16627  -0.0471  0.4142  1.0000  -1.3723   0.0000   0.0000   0.0000   0.3136
  13.300   0.6384   0.17795   0.16709  -0.0471  0.4070  1.0000  -1.3761   0.0000   0.0000   0.0000   0.3133
  13.400   0.6489   0.18118   0.17035  -0.0473  0.4001  1.0000  -1.3993   0.0000   0.0000   0.0000   0.3124
  13.500   0.6779   0.19155   0.18079  -0.0485  0.3948  1.0000  -1.4575   0.0000   0.0000   0.0000   0.3113
  13.600   0.6670   0.18893   0.17812  -0.0483  0.3937  1.0000  -1.4322   0.0000   0.0000   0.0000   0.3120
  13.700   0.6577   0.18663   0.17578  -0.0483  0.3911  1.0000  -1.4103   0.0000   0.0000   0.0000   0.3127
  13.800   0.6537   0.18586   0.17498  -0.0484  0.3863  1.0000  -1.3997   0.0000   0.0000   0.0000   0.3132
  13.900   0.6554   0.18673   0.17586  -0.0486  0.3810  1.0000  -1.4015   0.0000   0.0000   0.0000   0.3132
  14.000   0.6611   0.18881   0.17796  -0.0488  0.3758  1.0000  -1.4127   0.0000   0.0000   0.0000   0.3128
  14.100   0.6737   0.19328   0.18247  -0.0491  0.3709  1.0000  -1.4387   0.0000   0.0000   0.0000   0.3119
  14.200   0.6921   0.20116   0.19038  -0.0499  0.3675  1.0000  -1.4734   0.0000   0.0000   0.0000   0.3111
  14.300   0.6828   0.19853   0.18770  -0.0500  0.3663  1.0000  -1.4498   0.0000   0.0000   0.0000   0.3121
  14.400   0.6757   0.19645   0.18558  -0.0502  0.3635  1.0000  -1.4306   0.0000   0.0000   0.0000   0.3130
  14.500   0.6734   0.19598   0.18510  -0.0506  0.3590  1.0000  -1.4222   0.0000   0.0000   0.0000   0.3135
  14.600   0.6754   0.19694   0.18605  -0.0508  0.3541  1.0000  -1.4237   0.0000   0.0000   0.0000   0.3136
  14.700   0.6808   0.19897   0.18810  -0.0511  0.3494  1.0000  -1.4331   0.0000   0.0000   0.0000   0.3133
  14.800   0.6914   0.20305   0.19222  -0.0512  0.3449  1.0000  -1.4545   0.0000   0.0000   0.0000   0.3124
  14.900   0.7128   0.21277   0.20208  -0.0518  0.3412  1.0000  -1.4931   0.0000   0.0000   0.0000   0.3111
  15.000   0.7046   0.21006   0.19932  -0.0521  0.3402  1.0000  -1.4704   0.0000   0.0000   0.0000   0.3122


