xflr5 v6.55

 Calculated polar for: NACA 0010

 1 1 Reynolds number fixed          Mach number fixed         

 xtrf =   1.000 (top)        1.000 (bottom)
 Mach =   0.200     Re =     0.040 e 6     Ncrit =   9.000

  alpha     CL        CD       CDp       Cm    Top Xtr Bot Xtr   Cpmin    Chinge    XCp    
 ------- -------- --------- --------- -------- ------- ------- -------- --------- ---------
   0.000  -0.0000   0.01940   0.00800   0.0000  1.0000  1.0000  -0.3537   0.0000   0.0000   0.0000   0.4126
   0.100   0.0025   0.01940   0.00803   0.0012  1.0000  1.0000  -0.3601   0.0000   0.0000   0.0000  -0.2439
   0.200   0.0049   0.01942   0.00804   0.0024  1.0000  1.0000  -0.3666   0.0000   0.0000   0.0000  -0.2399
   0.300   0.0075   0.01945   0.00807   0.0035  1.0000  1.0000  -0.3731   0.0000   0.0000   0.0000  -0.2334
   0.400   0.0101   0.01949   0.00810   0.0047  1.0000  1.0000  -0.3804   0.0000   0.0000   0.0000  -0.2253
   0.500   0.0127   0.01954   0.00815   0.0058  1.0000  1.0000  -0.3877   0.0000   0.0000   0.0000  -0.2191
   0.600   0.0154   0.01961   0.00821   0.0069  1.0000  1.0000  -0.3949   0.0000   0.0000   0.0000  -0.2113
   0.700   0.0182   0.01969   0.00829   0.0080  1.0000  1.0000  -0.4027   0.0000   0.0000   0.0000  -0.2002
   0.800   0.0212   0.01978   0.00837   0.0090  1.0000  1.0000  -0.4110   0.0000   0.0000   0.0000  -0.1858
   0.900   0.0244   0.01988   0.00847   0.0099  1.0000  1.0000  -0.4195   0.0000   0.0000   0.0000  -0.1690
   1.000   0.0278   0.02000   0.00859   0.0108  1.0000  1.0000  -0.4282   0.0000   0.0000   0.0000  -0.1505
   1.100   0.0314   0.02013   0.00872   0.0117  1.0000  1.0000  -0.4378   0.0000   0.0000   0.0000  -0.1314
   1.200   0.0353   0.02027   0.00886   0.0124  1.0000  1.0000  -0.4478   0.0000   0.0000   0.0000  -0.1123
   1.300   0.0393   0.02043   0.00903   0.0131  1.0000  1.0000  -0.4580   0.0000   0.0000   0.0000  -0.0937
   1.400   0.0435   0.02061   0.00920   0.0137  1.0000  1.0000  -0.4682   0.0000   0.0000   0.0000  -0.0759
   1.500   0.0478   0.02080   0.00940   0.0143  1.0000  1.0000  -0.4797   0.0000   0.0000   0.0000  -0.0590
   1.600   0.0522   0.02100   0.00961   0.0148  1.0000  1.0000  -0.4915   0.0000   0.0000   0.0000  -0.0430
   1.700   0.0568   0.02123   0.00985   0.0152  1.0000  1.0000  -0.5033   0.0000   0.0000   0.0000  -0.0281
   1.800   0.0614   0.02147   0.01010   0.0156  1.0000  1.0000  -0.5150   0.0000   0.0000   0.0000  -0.0140
   1.900   0.0661   0.02172   0.01037   0.0160  1.0000  1.0000  -0.5278   0.0000   0.0000   0.0000  -0.0009
   2.000   0.0708   0.02200   0.01066   0.0162  1.0000  1.0000  -0.5412   0.0000   0.0000   0.0000   0.0116
   2.100   0.0755   0.02230   0.01098   0.0164  1.0000  1.0000  -0.5546   0.0000   0.0000   0.0000   0.0233
   2.200   0.0803   0.02261   0.01131   0.0166  1.0000  1.0000  -0.5678   0.0000   0.0000   0.0000   0.0343
   2.300   0.0851   0.02295   0.01167   0.0167  1.0000  1.0000  -0.5809   0.0000   0.0000   0.0000   0.0448
   2.400   0.0899   0.02331   0.01205   0.0168  1.0000  1.0000  -0.5946   0.0000   0.0000   0.0000   0.0547
   2.500   0.0946   0.02369   0.01246   0.0168  1.0000  1.0000  -0.6095   0.0000   0.0000   0.0000   0.0641
   2.600   0.0993   0.02409   0.01289   0.0167  1.0000  1.0000  -0.6242   0.0000   0.0000   0.0000   0.0730
   2.700   0.1433   0.02494   0.01389   0.0094  0.9824  1.0000  -0.6901   0.0000   0.0000   0.0000   0.1779
   2.800   0.1901   0.02570   0.01489   0.0019  0.9624  1.0000  -0.7700   0.0000   0.0000   0.0000   0.2345
   2.900   0.2308   0.02622   0.01559  -0.0041  0.9410  1.0000  -0.8451   0.0000   0.0000   0.0000   0.2630
   3.000   0.2721   0.02658   0.01615  -0.0098  0.9181  1.0000  -0.9244   0.0000   0.0000   0.0000   0.2816
   3.100   0.3154   0.02676   0.01656  -0.0154  0.8936  1.0000  -1.0229   0.0000   0.0000   0.0000   0.2945
   3.200   0.3632   0.02667   0.01675  -0.0210  0.8668  1.0000  -1.1338   0.0000   0.0000   0.0000   0.3038
   3.300   0.4021   0.02638   0.01670  -0.0243  0.8402  1.0000  -1.2313   0.0000   0.0000   0.0000   0.3067
   3.400   0.4335   0.02600   0.01650  -0.0259  0.8137  1.0000  -1.3207   0.0000   0.0000   0.0000   0.3061
   3.500   0.4582   0.02561   0.01625  -0.0261  0.7877  1.0000  -1.4076   0.0000   0.0000   0.0000   0.3034
   3.600   0.4775   0.02525   0.01608  -0.0253  0.7620  1.0000  -1.4797   0.0000   0.0000   0.0000   0.2994
   3.700   0.4928   0.02493   0.01580  -0.0238  0.7367  1.0000  -1.5461   0.0000   0.0000   0.0000   0.2947
   3.800   0.5055   0.02465   0.01551  -0.0218  0.7114  1.0000  -1.6069   0.0000   0.0000   0.0000   0.2895
   3.900   0.5146   0.02454   0.01538  -0.0196  0.6852  1.0000  -1.6576   0.0000   0.0000   0.0000   0.2845
   4.000   0.5221   0.02452   0.01533  -0.0175  0.6580  1.0000  -1.7037   0.0000   0.0000   0.0000   0.2797
   4.100   0.5296   0.02455   0.01528  -0.0153  0.6300  1.0000  -1.7495   0.0000   0.0000   0.0000   0.2751
   4.200   0.5370   0.02461   0.01525  -0.0131  0.6010  1.0000  -1.7949   0.0000   0.0000   0.0000   0.2706
   4.300   0.5443   0.02473   0.01525  -0.0110  0.5713  1.0000  -1.8394   0.0000   0.0000   0.0000   0.2664
   4.400   0.5514   0.02490   0.01526  -0.0090  0.5407  1.0000  -1.8831   0.0000   0.0000   0.0000   0.2624
   4.500   0.5585   0.02515   0.01534  -0.0071  0.5098  1.0000  -1.9256   0.0000   0.0000   0.0000   0.2587
   4.600   0.5657   0.02549   0.01547  -0.0054  0.4792  1.0000  -1.9669   0.0000   0.0000   0.0000   0.2554
   4.700   0.5722   0.02591   0.01573  -0.0038  0.4485  1.0000  -2.0034   0.0000   0.0000   0.0000   0.2525
   4.800   0.5792   0.02640   0.01607  -0.0024  0.4194  1.0000  -2.0391   0.0000   0.0000   0.0000   0.2499
   4.900   0.5865   0.02693   0.01642  -0.0011  0.3921  1.0000  -2.0746   0.0000   0.0000   0.0000   0.2476
   5.000   0.5942   0.02749   0.01678   0.0001  0.3672  1.0000  -2.1219   0.0000   0.0000   0.0000   0.2455
   5.100   0.6018   0.02812   0.01738   0.0011  0.3446  1.0000  -2.1627   0.0000   0.0000   0.0000   0.2438
   5.200   0.6095   0.02881   0.01806   0.0019  0.3240  1.0000  -2.2019   0.0000   0.0000   0.0000   0.2423
   5.300   0.6175   0.02950   0.01866   0.0028  0.3055  1.0000  -2.2448   0.0000   0.0000   0.0000   0.2409
   5.400   0.6265   0.03019   0.01907   0.0036  0.2897  1.0000  -2.2970   0.0000   0.0000   0.0000   0.2396
   5.500   0.6348   0.03105   0.02015   0.0042  0.2762  1.0000  -2.3254   0.0000   0.0000   0.0000   0.2386
   5.600   0.6442   0.03189   0.02079   0.0049  0.2644  1.0000  -2.3741   0.0000   0.0000   0.0000   0.2377
   5.700   0.6518   0.03268   0.02188   0.0055  0.2524  1.0000  -2.3988   0.0000   0.0000   0.0000   0.2367
   5.800   0.6608   0.03344   0.02240   0.0062  0.2412  1.0000  -2.4504   0.0000   0.0000   0.0000   0.2358
   5.900   0.6680   0.03430   0.02352   0.0068  0.2315  1.0000  -2.4741   0.0000   0.0000   0.0000   0.2349
   6.000   0.6771   0.03517   0.02436   0.0073  0.2238  1.0000  -2.5142   0.0000   0.0000   0.0000   0.2341
   6.100   0.6861   0.03638   0.02553   0.0078  0.2182  1.0000  -2.5495   0.0000   0.0000   0.0000   0.2336
   6.200   0.6930   0.03762   0.02708   0.0083  0.2134  1.0000  -2.5601   0.0000   0.0000   0.0000   0.2329
   6.300   0.7002   0.03874   0.02837   0.0089  0.2080  1.0000  -2.5809   0.0000   0.0000   0.0000   0.2322
   6.400   0.7092   0.03954   0.02909   0.0094  0.2013  1.0000  -2.6264   0.0000   0.0000   0.0000   0.2315
   6.500   0.7162   0.04074   0.03027   0.0099  0.1957  1.0000  -2.6589   0.0000   0.0000   0.0000   0.2308
   6.600   0.7207   0.04195   0.03179   0.0105  0.1908  1.0000  -2.6646   0.0000   0.0000   0.0000   0.2300
   6.700   0.7267   0.04303   0.03301   0.0111  0.1857  1.0000  -2.6857   0.0000   0.0000   0.0000   0.2294
   6.800   0.7344   0.04408   0.03407   0.0116  0.1816  1.0000  -2.7176   0.0000   0.0000   0.0000   0.2288
   6.900   0.7426   0.04534   0.03531   0.0120  0.1787  1.0000  -2.7502   0.0000   0.0000   0.0000   0.2283
   7.000   0.7495   0.04705   0.03698   0.0124  0.1765  1.0000  -2.7735   0.0000   0.0000   0.0000   0.2279
   7.100   0.7525   0.04868   0.03889   0.0129  0.1756  1.0000  -2.7655   0.0000   0.0000   0.0000   0.2273
   7.200   0.7552   0.05041   0.04085   0.0133  0.1749  1.0000  -2.7564   0.0000   0.0000   0.0000   0.2268
   7.300   0.7574   0.05222   0.04287   0.0136  0.1744  1.0000  -2.7460   0.0000   0.0000   0.0000   0.2263
   7.400   0.7591   0.05409   0.04492   0.0139  0.1740  1.0000  -2.7344   0.0000   0.0000   0.0000   0.2260
   7.500   0.7603   0.05601   0.04700   0.0141  0.1739  1.0000  -2.7215   0.0000   0.0000   0.0000   0.2257
   7.600   0.7608   0.05800   0.04914   0.0143  0.1739  1.0000  -2.7063   0.0000   0.0000   0.0000   0.2255
   7.700   0.7604   0.06002   0.05130   0.0144  0.1740  1.0000  -2.6886   0.0000   0.0000   0.0000   0.2253
   7.800   0.7592   0.06208   0.05348   0.0144  0.1740  1.0000  -2.6690   0.0000   0.0000   0.0000   0.2253
   7.900   0.7575   0.06417   0.05568   0.0143  0.1741  1.0000  -2.6477   0.0000   0.0000   0.0000   0.2253
   8.000   0.7552   0.06629   0.05790   0.0141  0.1742  1.0000  -2.6251   0.0000   0.0000   0.0000   0.2254
   8.100   0.7524   0.06844   0.06013   0.0139  0.1744  1.0000  -2.6016   0.0000   0.0000   0.0000   0.2256
   8.200   0.7494   0.07061   0.06236   0.0136  0.1746  1.0000  -2.5776   0.0000   0.0000   0.0000   0.2259
   8.300   0.7462   0.07280   0.06460   0.0132  0.1748  1.0000  -2.5533   0.0000   0.0000   0.0000   0.2263
   8.400   0.7430   0.07500   0.06685   0.0127  0.1751  1.0000  -2.5292   0.0000   0.0000   0.0000   0.2267
   8.500   0.7398   0.07722   0.06909   0.0122  0.1753  1.0000  -2.5055   0.0000   0.0000   0.0000   0.2273
   8.600   0.7369   0.07944   0.07134   0.0117  0.1756  1.0000  -2.4825   0.0000   0.0000   0.0000   0.2278
   8.700   0.7342   0.08168   0.07359   0.0112  0.1758  1.0000  -2.4604   0.0000   0.0000   0.0000   0.2285
   8.800   0.7320   0.08392   0.07584   0.0106  0.1761  1.0000  -2.4398   0.0000   0.0000   0.0000   0.2291
   8.900   0.7305   0.08617   0.07810   0.0100  0.1764  1.0000  -2.4213   0.0000   0.0000   0.0000   0.2298
   9.000   0.7299   0.08842   0.08039   0.0096  0.1766  1.0000  -2.4057   0.0000   0.0000   0.0000   0.2304
   9.200   0.6720   0.10510   0.09697  -0.0083  0.2419  1.0000  -1.9524   0.0000   0.0000   0.0000   0.2559
   9.300   0.5816   0.11505   0.10659  -0.0315  0.4027  1.0000  -1.4900   0.0000   0.0000   0.0000   0.2973
   9.400   0.5856   0.11692   0.10846  -0.0318  0.4012  1.0000  -1.4909   0.0000   0.0000   0.0000   0.2974
   9.500   0.5926   0.11912   0.11067  -0.0321  0.3993  1.0000  -1.4974   0.0000   0.0000   0.0000   0.2972
   9.600   0.6030   0.12190   0.11358  -0.0324  0.3975  1.0000  -1.5075   0.0000   0.0000   0.0000   0.2967
   9.700   0.6197   0.12602   0.11776  -0.0328  0.3957  1.0000  -1.5281   0.0000   0.0000   0.0000   0.2961
   9.800   0.6205   0.12816   0.11986  -0.0332  0.3943  1.0000  -1.5212   0.0000   0.0000   0.0000   0.2965
   9.900   0.5898   0.12489   0.11647  -0.0328  0.3886  1.0000  -1.4645   0.0000   0.0000   0.0000   0.2983
  10.100   0.5892   0.12699   0.11855  -0.0329  0.3786  1.0000  -1.4531   0.0000   0.0000   0.0000   0.2982
  10.200   0.5975   0.12909   0.12067  -0.0329  0.3742  1.0000  -1.4630   0.0000   0.0000   0.0000   0.2975
  10.300   0.6315   0.13587   0.12754  -0.0327  0.3672  1.0000  -1.5196   0.0000   0.0000   0.0000   0.2944
  10.400   0.6165   0.13496   0.12657  -0.0330  0.3659  1.0000  -1.4854   0.0000   0.0000   0.0000   0.2959
  10.500   0.6019   0.13395   0.12550  -0.0332  0.3620  1.0000  -1.4528   0.0000   0.0000   0.0000   0.2973
  10.600   0.5981   0.13433   0.12586  -0.0331  0.3550  1.0000  -1.4417   0.0000   0.0000   0.0000   0.2974
  10.700   0.6471   0.14274   0.13441  -0.0318  0.3411  1.0000  -1.5341   0.0000   0.0000   0.0000   0.2916
  10.800   0.6318   0.14169   0.13330  -0.0323  0.3400  1.0000  -1.4976   0.0000   0.0000   0.0000   0.2934
  10.900   0.6165   0.14053   0.13207  -0.0328  0.3375  1.0000  -1.4620   0.0000   0.0000   0.0000   0.2951
  11.000   0.6083   0.14031   0.13182  -0.0330  0.3320  1.0000  -1.4407   0.0000   0.0000   0.0000   0.2961
  11.100   0.6109   0.14151   0.13303  -0.0330  0.3256  1.0000  -1.4411   0.0000   0.0000   0.0000   0.2957
  11.200   0.6208   0.14386   0.13541  -0.0328  0.3208  1.0000  -1.4550   0.0000   0.0000   0.0000   0.2945
  11.300   0.6412   0.14840   0.14001  -0.0325  0.3172  1.0000  -1.4866   0.0000   0.0000   0.0000   0.2925
  11.400   0.6573   0.15349   0.14512  -0.0326  0.3152  1.0000  -1.5205   0.0000   0.0000   0.0000   0.2915
  11.500   0.6397   0.15166   0.14321  -0.0333  0.3138  1.0000  -1.4707   0.0000   0.0000   0.0000   0.2937
  11.600   0.6246   0.15008   0.14157  -0.0339  0.3102  1.0000  -1.4283   0.0000   0.0000   0.0000   0.2957
  11.700   0.6211   0.15048   0.14196  -0.0342  0.3053  1.0000  -1.4183   0.0000   0.0000   0.0000   0.2963
  11.800   0.6235   0.15181   0.14329  -0.0344  0.3008  1.0000  -1.4256   0.0000   0.0000   0.0000   0.2963
  11.900   0.6305   0.15384   0.14534  -0.0343  0.2968  1.0000  -1.4461   0.0000   0.0000   0.0000   0.2956
  12.000   0.6454   0.15747   0.14901  -0.0341  0.2931  1.0000  -1.4890   0.0000   0.0000   0.0000   0.2939
  12.100   0.6746   0.16547   0.15707  -0.0337  0.2902  1.0000  -1.5661   0.0000   0.0000   0.0000   0.2912
  12.200   0.6595   0.16373   0.15527  -0.0345  0.2894  1.0000  -1.5209   0.0000   0.0000   0.0000   0.2934
  12.300   0.6446   0.16183   0.15331  -0.0353  0.2873  1.0000  -1.4765   0.0000   0.0000   0.0000   0.2957
  12.400   0.6367   0.16121   0.15266  -0.0359  0.2833  1.0000  -1.4522   0.0000   0.0000   0.0000   0.2970
  12.500   0.6364   0.16205   0.15349  -0.0362  0.2789  1.0000  -1.4498   0.0000   0.0000   0.0000   0.2975
  12.600   0.6401   0.16357   0.15503  -0.0364  0.2749  1.0000  -1.4596   0.0000   0.0000   0.0000   0.2973
  12.700   0.6481   0.16591   0.15739  -0.0363  0.2712  1.0000  -1.4823   0.0000   0.0000   0.0000   0.2964
  12.800   0.6670   0.17092   0.16245  -0.0358  0.2677  1.0000  -1.5352   0.0000   0.0000   0.0000   0.2943
  12.900   0.6847   0.17713   0.16868  -0.0358  0.2656  1.0000  -1.5785   0.0000   0.0000   0.0000   0.2928
  13.000   0.6716   0.17530   0.16679  -0.0367  0.2648  1.0000  -1.5369   0.0000   0.0000   0.0000   0.2950
  13.100   0.6594   0.17344   0.16489  -0.0376  0.2629  1.0000  -1.4980   0.0000   0.0000   0.0000   0.2972
  13.200   0.6533   0.17290   0.16432  -0.0383  0.2593  1.0000  -1.4763   0.0000   0.0000   0.0000   0.2986
  13.300   0.6533   0.17370   0.16512  -0.0388  0.2553  1.0000  -1.4728   0.0000   0.0000   0.0000   0.2992
  13.400   0.6567   0.17516   0.16658  -0.0390  0.2513  1.0000  -1.4806   0.0000   0.0000   0.0000   0.2991
  13.500   0.6657   0.17773   0.16917  -0.0387  0.2470  1.0000  -1.5072   0.0000   0.0000   0.0000   0.2979
  13.600   0.6946   0.18681   0.17831  -0.0377  0.2419  1.0000  -1.5904   0.0000   0.0000   0.0000   0.2941
  13.700   0.6847   0.18535   0.17681  -0.0387  0.2411  1.0000  -1.5554   0.0000   0.0000   0.0000   0.2962
  13.800   0.6756   0.18383   0.17525  -0.0397  0.2397  1.0000  -1.5221   0.0000   0.0000   0.0000   0.2982
  13.900   0.6699   0.18309   0.17448  -0.0406  0.2365  1.0000  -1.4987   0.0000   0.0000   0.0000   0.2999
  14.000   0.6697   0.18366   0.17504  -0.0412  0.2319  1.0000  -1.4938   0.0000   0.0000   0.0000   0.3006
  14.100   0.6743   0.18524   0.17663  -0.0412  0.2269  1.0000  -1.5070   0.0000   0.0000   0.0000   0.3002
  14.300   0.7073   0.19673   0.18826  -0.0399  0.2190  1.0000  -1.6024   0.0000   0.0000   0.0000   0.2956
  14.400   0.6983   0.19500   0.18649  -0.0410  0.2183  1.0000  -1.5675   0.0000   0.0000   0.0000   0.2978
  14.500   0.6906   0.19346   0.18491  -0.0422  0.2168  1.0000  -1.5357   0.0000   0.0000   0.0000   0.2999
  14.600   0.6868   0.19296   0.18439  -0.0433  0.2140  1.0000  -1.5152   0.0000   0.0000   0.0000   0.3016
  14.700   0.6871   0.19364   0.18507  -0.0440  0.2108  1.0000  -1.5085   0.0000   0.0000   0.0000   0.3025
  14.800   0.6895   0.19488   0.18630  -0.0444  0.2078  1.0000  -1.5097   0.0000   0.0000   0.0000   0.3028
  14.900   0.6935   0.19650   0.18794  -0.0447  0.2050  1.0000  -1.5173   0.0000   0.0000   0.0000   0.3027
  15.000   0.6995   0.19872   0.19017  -0.0447  0.2024  1.0000  -1.5329   0.0000   0.0000   0.0000   0.3021


