xflr5 v6.55

 Calculated polar for: NACA 0010

 1 1 Reynolds number fixed          Mach number fixed         

 xtrf =   1.000 (top)        1.000 (bottom)
 Mach =   0.200     Re =     0.085 e 6     Ncrit =   9.000

  alpha     CL        CD       CDp       Cm    Top Xtr Bot Xtr   Cpmin    Chinge    XCp    
 ------- -------- --------- --------- -------- ------- ------- -------- --------- ---------
   0.000   0.0000   0.01429   0.00665  -0.0000  1.0000  1.0000  -0.3532   0.0000   0.0000   0.0000   0.5411
   0.100  -0.0020   0.01430   0.00666   0.0019  1.0000  1.0000  -0.3566   0.0000   0.0000   0.0000   1.1915
   0.200  -0.0037   0.01433   0.00668   0.0037  1.0000  1.0000  -0.3601   0.0000   0.0000   0.0000   1.2426
   0.300  -0.0050   0.01437   0.00672   0.0054  1.0000  1.0000  -0.3638   0.0000   0.0000   0.0000   1.3389
   0.400  -0.0057   0.01443   0.00678   0.0070  1.0000  1.0000  -0.3682   0.0000   0.0000   0.0000   1.4964
   0.500  -0.0058   0.01452   0.00685   0.0085  1.0000  1.0000  -0.3733   0.0000   0.0000   0.0000   1.7331
   0.600  -0.0053   0.01461   0.00693   0.0098  1.0000  1.0000  -0.3787   0.0000   0.0000   0.0000   2.1167
   0.700  -0.0041   0.01473   0.00704   0.0110  1.0000  1.0000  -0.3846   0.0000   0.0000   0.0000   2.9499
   0.800  -0.0022   0.01486   0.00716   0.0120  1.0000  1.0000  -0.3912   0.0000   0.0000   0.0000   5.8562
   0.900   0.0038   0.01502   0.00731   0.0123  0.9992  1.0000  -0.4015   0.0000   0.0000   0.0000  -3.0874
   1.000   0.0338   0.01520   0.00753   0.0083  0.9927  1.0000  -0.4319   0.0000   0.0000   0.0000  -0.0047
   1.100   0.0630   0.01533   0.00769   0.0045  0.9846  1.0000  -0.4645   0.0000   0.0000   0.0000   0.1728
   1.200   0.0932   0.01545   0.00785   0.0006  0.9775  1.0000  -0.5011   0.0000   0.0000   0.0000   0.2390
   1.300   0.1224   0.01551   0.00797  -0.0030  0.9687  1.0000  -0.5389   0.0000   0.0000   0.0000   0.2709
   1.400   0.1544   0.01556   0.00807  -0.0071  0.9615  1.0000  -0.5847   0.0000   0.0000   0.0000   0.2927
   1.500   0.1830   0.01554   0.00812  -0.0105  0.9515  1.0000  -0.6291   0.0000   0.0000   0.0000   0.3040
   1.600   0.2209   0.01546   0.00813  -0.0155  0.9451  1.0000  -0.6908   0.0000   0.0000   0.0000   0.3169
   1.700   0.2444   0.01538   0.00816  -0.0176  0.9325  1.0000  -0.7346   0.0000   0.0000   0.0000   0.3191
   1.800   0.2777   0.01520   0.00806  -0.0214  0.9238  1.0000  -0.8012   0.0000   0.0000   0.0000   0.3242
   1.900   0.2960   0.01510   0.00801  -0.0224  0.9090  1.0000  -0.8456   0.0000   0.0000   0.0000   0.3228
   2.000   0.3190   0.01493   0.00790  -0.0241  0.8966  1.0000  -0.8985   0.0000   0.0000   0.0000   0.3226
   2.100   0.3362   0.01479   0.00780  -0.0246  0.8815  1.0000  -0.9429   0.0000   0.0000   0.0000   0.3203
   2.200   0.3500   0.01470   0.00773  -0.0245  0.8657  1.0000  -0.9893   0.0000   0.0000   0.0000   0.3172
   2.300   0.3658   0.01453   0.00758  -0.0245  0.8515  1.0000  -1.0407   0.0000   0.0000   0.0000   0.3141
   2.400   0.3747   0.01450   0.00755  -0.0236  0.8331  1.0000  -1.0784   0.0000   0.0000   0.0000   0.3099
   2.500   0.3850   0.01443   0.00748  -0.0227  0.8164  1.0000  -1.1199   0.0000   0.0000   0.0000   0.3059
   2.600   0.3952   0.01436   0.00738  -0.0217  0.7997  1.0000  -1.1616   0.0000   0.0000   0.0000   0.3019
   2.700   0.4033   0.01436   0.00737  -0.0206  0.7806  1.0000  -1.1991   0.0000   0.0000   0.0000   0.2979
   2.800   0.4123   0.01434   0.00731  -0.0195  0.7629  1.0000  -1.2390   0.0000   0.0000   0.0000   0.2941
   2.900   0.4210   0.01433   0.00726  -0.0183  0.7443  1.0000  -1.2786   0.0000   0.0000   0.0000   0.2903
   3.000   0.4290   0.01437   0.00727  -0.0173  0.7239  1.0000  -1.3215   0.0000   0.0000   0.0000   0.2869
   3.100   0.4375   0.01441   0.00725  -0.0161  0.7046  1.0000  -1.3688   0.0000   0.0000   0.0000   0.2835
   3.200   0.4459   0.01446   0.00721  -0.0150  0.6850  1.0000  -1.4167   0.0000   0.0000   0.0000   0.2802
   3.300   0.4539   0.01453   0.00725  -0.0140  0.6630  1.0000  -1.4631   0.0000   0.0000   0.0000   0.2773
   3.400   0.4621   0.01462   0.00735  -0.0130  0.6414  1.0000  -1.5066   0.0000   0.0000   0.0000   0.2745
   3.500   0.4704   0.01473   0.00735  -0.0119  0.6202  1.0000  -1.5541   0.0000   0.0000   0.0000   0.2717
   3.600   0.4784   0.01484   0.00738  -0.0109  0.5976  1.0000  -1.6019   0.0000   0.0000   0.0000   0.2691
   3.700   0.4864   0.01497   0.00744  -0.0100  0.5735  1.0000  -1.6494   0.0000   0.0000   0.0000   0.2667
   3.800   0.4945   0.01512   0.00751  -0.0090  0.5493  1.0000  -1.6975   0.0000   0.0000   0.0000   0.2645
   3.900   0.5024   0.01528   0.00757  -0.0081  0.5244  1.0000  -1.7457   0.0000   0.0000   0.0000   0.2622
   4.000   0.5102   0.01547   0.00764  -0.0072  0.4989  1.0000  -1.7939   0.0000   0.0000   0.0000   0.2601
   4.100   0.5180   0.01568   0.00773  -0.0063  0.4726  1.0000  -1.8419   0.0000   0.0000   0.0000   0.2580
   4.200   0.5255   0.01591   0.00783  -0.0054  0.4448  1.0000  -1.8894   0.0000   0.0000   0.0000   0.2561
   4.300   0.5329   0.01616   0.00795  -0.0045  0.4156  1.0000  -1.9362   0.0000   0.0000   0.0000   0.2542
   4.400   0.5403   0.01645   0.00810  -0.0036  0.3855  1.0000  -1.9824   0.0000   0.0000   0.0000   0.2524
   4.500   0.5475   0.01678   0.00828  -0.0027  0.3548  1.0000  -2.0274   0.0000   0.0000   0.0000   0.2506
   4.600   0.5545   0.01716   0.00848  -0.0019  0.3244  1.0000  -2.0713   0.0000   0.0000   0.0000   0.2490
   4.700   0.5615   0.01759   0.00871  -0.0011  0.2956  1.0000  -2.1162   0.0000   0.0000   0.0000   0.2474
   4.800   0.5686   0.01806   0.00900  -0.0003  0.2694  1.0000  -2.1686   0.0000   0.0000   0.0000   0.2459
   4.900   0.5760   0.01855   0.00933   0.0004  0.2458  1.0000  -2.2203   0.0000   0.0000   0.0000   0.2446
   5.000   0.5836   0.01903   0.00968   0.0011  0.2248  1.0000  -2.2721   0.0000   0.0000   0.0000   0.2433
   5.100   0.5915   0.01952   0.01006   0.0018  0.2067  1.0000  -2.3240   0.0000   0.0000   0.0000   0.2421
   5.200   0.5993   0.02006   0.01047   0.0024  0.1921  1.0000  -2.3760   0.0000   0.0000   0.0000   0.2410
   5.300   0.6076   0.02055   0.01088   0.0030  0.1800  1.0000  -2.4286   0.0000   0.0000   0.0000   0.2400
   5.400   0.6164   0.02114   0.01144   0.0036  0.1695  1.0000  -2.4772   0.0000   0.0000   0.0000   0.2391
   5.500   0.6250   0.02163   0.01184   0.0042  0.1601  1.0000  -2.5313   0.0000   0.0000   0.0000   0.2382
   5.600   0.6338   0.02223   0.01249   0.0047  0.1515  1.0000  -2.5749   0.0000   0.0000   0.0000   0.2374
   5.700   0.6425   0.02263   0.01287   0.0052  0.1430  1.0000  -2.6295   0.0000   0.0000   0.0000   0.2366
   5.800   0.6511   0.02334   0.01345   0.0056  0.1362  1.0000  -2.6837   0.0000   0.0000   0.0000   0.2360
   5.900   0.6606   0.02383   0.01407   0.0062  0.1303  1.0000  -2.7298   0.0000   0.0000   0.0000   0.2353
   6.000   0.6700   0.02440   0.01462   0.0066  0.1253  1.0000  -2.7808   0.0000   0.0000   0.0000   0.2346
   6.100   0.6794   0.02516   0.01527   0.0070  0.1211  1.0000  -2.8345   0.0000   0.0000   0.0000   0.2342
   6.200   0.6891   0.02604   0.01621   0.0074  0.1177  1.0000  -2.8746   0.0000   0.0000   0.0000   0.2336
   6.300   0.6986   0.02669   0.01701   0.0079  0.1141  1.0000  -2.9138   0.0000   0.0000   0.0000   0.2329
   6.400   0.7078   0.02728   0.01768   0.0084  0.1101  1.0000  -2.9602   0.0000   0.0000   0.0000   0.2323
   6.500   0.7166   0.02782   0.01816   0.0088  0.1061  1.0000  -3.0184   0.0000   0.0000   0.0000   0.2318
   6.600   0.7252   0.02892   0.01916   0.0091  0.1023  1.0000  -3.0691   0.0000   0.0000   0.0000   0.2316
   6.700   0.7336   0.02937   0.01985   0.0097  0.0988  1.0000  -3.1061   0.0000   0.0000   0.0000   0.2307
   6.800   0.7423   0.03009   0.02071   0.0103  0.0960  1.0000  -3.1433   0.0000   0.0000   0.0000   0.2301
   6.900   0.7511   0.03090   0.02162   0.0108  0.0939  1.0000  -3.1804   0.0000   0.0000   0.0000   0.2295
   7.000   0.7597   0.03173   0.02252   0.0113  0.0919  1.0000  -3.2190   0.0000   0.0000   0.0000   0.2290
   7.100   0.7680   0.03261   0.02345   0.0117  0.0902  1.0000  -3.2589   0.0000   0.0000   0.0000   0.2285
   7.200   0.7762   0.03369   0.02455   0.0121  0.0887  1.0000  -3.2974   0.0000   0.0000   0.0000   0.2281
   7.300   0.7836   0.03526   0.02617   0.0125  0.0875  1.0000  -3.3229   0.0000   0.0000   0.0000   0.2277
   7.400   0.7898   0.03664   0.02772   0.0131  0.0867  1.0000  -3.3331   0.0000   0.0000   0.0000   0.2269
   7.500   0.7958   0.03776   0.02909   0.0139  0.0861  1.0000  -3.3405   0.0000   0.0000   0.0000   0.2260
   7.600   0.8012   0.03901   0.03057   0.0147  0.0856  1.0000  -3.3440   0.0000   0.0000   0.0000   0.2251
   7.700   0.8061   0.04037   0.03215   0.0154  0.0852  1.0000  -3.3443   0.0000   0.0000   0.0000   0.2243
   7.800   0.8105   0.04182   0.03382   0.0161  0.0849  1.0000  -3.3415   0.0000   0.0000   0.0000   0.2234
   7.900   0.8142   0.04332   0.03553   0.0169  0.0847  1.0000  -3.3359   0.0000   0.0000   0.0000   0.2226
   8.000   0.8169   0.04482   0.03731   0.0176  0.0842  1.0000  -3.3356   0.0000   0.0000   0.0000   0.2217
   8.100   0.8188   0.04632   0.03902   0.0183  0.0835  1.0000  -3.3382   0.0000   0.0000   0.0000   0.2208
   8.200   0.8201   0.04783   0.04073   0.0190  0.0826  1.0000  -3.3404   0.0000   0.0000   0.0000   0.2200
   8.300   0.8208   0.04933   0.04242   0.0196  0.0815  1.0000  -3.3431   0.0000   0.0000   0.0000   0.2192
   8.400   0.8214   0.05078   0.04402   0.0202  0.0804  1.0000  -3.3493   0.0000   0.0000   0.0000   0.2184
   8.500   0.8223   0.05211   0.04548   0.0207  0.0791  1.0000  -3.3636   0.0000   0.0000   0.0000   0.2177
   8.600   0.8251   0.05316   0.04659   0.0212  0.0775  1.0000  -3.3988   0.0000   0.0000   0.0000   0.2172
   8.700   0.8434   0.05275   0.04584   0.0211  0.0741  1.0000  -3.5826   0.0000   0.0000   0.0000   0.2176
   8.800   0.8426   0.05453   0.04779   0.0217  0.0741  1.0000  -3.5721   0.0000   0.0000   0.0000   0.2169
   8.900   0.8240   0.05780   0.05153   0.0224  0.0760  1.0000  -3.4137   0.0000   0.0000   0.0000   0.2154
   9.000   0.8114   0.06072   0.05467   0.0226  0.0773  1.0000  -3.3173   0.0000   0.0000   0.0000   0.2148
   9.100   0.8005   0.06340   0.05750   0.0225  0.0783  1.0000  -3.2421   0.0000   0.0000   0.0000   0.2145
   9.200   0.7900   0.06596   0.06017   0.0222  0.0793  1.0000  -3.1757   0.0000   0.0000   0.0000   0.2144
   9.300   0.7780   0.06839   0.06268   0.0219  0.0803  1.0000  -3.1099   0.0000   0.0000   0.0000   0.2142
   9.400   0.7665   0.07082   0.06516   0.0213  0.0812  1.0000  -3.0492   0.0000   0.0000   0.0000   0.2145
   9.500   0.7561   0.07339   0.06776   0.0202  0.0821  1.0000  -2.9925   0.0000   0.0000   0.0000   0.2154
   9.600   0.7475   0.07603   0.07037   0.0188  0.0830  1.0000  -2.9463   0.0000   0.0000   0.0000   0.2169
   9.700   0.7401   0.07876   0.07312   0.0171  0.0838  1.0000  -2.8989   0.0000   0.0000   0.0000   0.2188
   9.800   0.7344   0.08146   0.07583   0.0155  0.0845  1.0000  -2.8591   0.0000   0.0000   0.0000   0.2208
   9.900   0.7307   0.08401   0.07837   0.0142  0.0851  1.0000  -2.8313   0.0000   0.0000   0.0000   0.2224
  10.000   0.7300   0.08617   0.08053   0.0136  0.0857  1.0000  -2.8253   0.0000   0.0000   0.0000   0.2231
  10.100   0.7326   0.08795   0.08236   0.0138  0.0862  1.0000  -2.8384   0.0000   0.0000   0.0000   0.2227
  10.200   0.6791   0.11759   0.11199  -0.0088  0.1760  1.0000  -1.8929   0.0000   0.0000   0.0000   0.2557
  10.300   0.6674   0.11921   0.11357  -0.0116  0.1755  1.0000  -1.8290   0.0000   0.0000   0.0000   0.2598
  10.400   0.6545   0.12062   0.11493  -0.0144  0.1744  1.0000  -1.7592   0.0000   0.0000   0.0000   0.2644
  10.500   0.6431   0.12194   0.11621  -0.0170  0.1720  1.0000  -1.6977   0.0000   0.0000   0.0000   0.2686
  10.600   0.6389   0.12330   0.11755  -0.0183  0.1683  1.0000  -1.6746   0.0000   0.0000   0.0000   0.2707
  10.700   0.6426   0.12442   0.11867  -0.0181  0.1636  1.0000  -1.6978   0.0000   0.0000   0.0000   0.2702
  10.800   0.6858   0.12621   0.12059  -0.0105  0.1573  1.0000  -1.9422   0.0000   0.0000   0.0000   0.2573
  10.900   0.6920   0.12949   0.12386  -0.0099  0.1564  1.0000  -1.9650   0.0000   0.0000   0.0000   0.2563
  11.000   0.6788   0.13080   0.12511  -0.0129  0.1560  1.0000  -1.8900   0.0000   0.0000   0.0000   0.2609
  11.100   0.6584   0.13152   0.12576  -0.0172  0.1546  1.0000  -1.7766   0.0000   0.0000   0.0000   0.2678
  11.200   0.6462   0.13253   0.12673  -0.0200  0.1513  1.0000  -1.7069   0.0000   0.0000   0.0000   0.2725
  11.300   0.6443   0.13398   0.12817  -0.0210  0.1487  1.0000  -1.6922   0.0000   0.0000   0.0000   0.2740
  11.400   0.6451   0.13547   0.12965  -0.0215  0.1465  1.0000  -1.6919   0.0000   0.0000   0.0000   0.2747
  11.500   0.6477   0.13694   0.13112  -0.0217  0.1445  1.0000  -1.7021   0.0000   0.0000   0.0000   0.2748
  11.600   0.6523   0.13842   0.13261  -0.0216  0.1426  1.0000  -1.7239   0.0000   0.0000   0.0000   0.2742
  11.700   0.6597   0.14001   0.13421  -0.0209  0.1409  1.0000  -1.7619   0.0000   0.0000   0.0000   0.2728
  11.800   0.6719   0.14201   0.13624  -0.0193  0.1394  1.0000  -1.8260   0.0000   0.0000   0.0000   0.2699
  11.900   0.6967   0.14625   0.14055  -0.0154  0.1378  1.0000  -1.9573   0.0000   0.0000   0.0000   0.2632
  12.000   0.6942   0.14850   0.14276  -0.0165  0.1374  1.0000  -1.9324   0.0000   0.0000   0.0000   0.2649
  12.100   0.6841   0.14945   0.14367  -0.0191  0.1370  1.0000  -1.8671   0.0000   0.0000   0.0000   0.2688
  12.200   0.6706   0.14995   0.14412  -0.0223  0.1362  1.0000  -1.7821   0.0000   0.0000   0.0000   0.2740
  12.300   0.6585   0.15045   0.14458  -0.0253  0.1340  1.0000  -1.7054   0.0000   0.0000   0.0000   0.2790
  12.400   0.6555   0.15164   0.14575  -0.0266  0.1316  1.0000  -1.6804   0.0000   0.0000   0.0000   0.2811
  12.500   0.6556   0.15301   0.14712  -0.0273  0.1295  1.0000  -1.6740   0.0000   0.0000   0.0000   0.2821
  12.600   0.6573   0.15444   0.14855  -0.0278  0.1276  1.0000  -1.6768   0.0000   0.0000   0.0000   0.2825
  12.700   0.6602   0.15590   0.15001  -0.0280  0.1259  1.0000  -1.6875   0.0000   0.0000   0.0000   0.2826
  12.800   0.6645   0.15744   0.15155  -0.0280  0.1243  1.0000  -1.7069   0.0000   0.0000   0.0000   0.2823
  12.900   0.6709   0.15915   0.15327  -0.0277  0.1229  1.0000  -1.7382   0.0000   0.0000   0.0000   0.2813
  13.000   0.6805   0.16126   0.15540  -0.0268  0.1216  1.0000  -1.7887   0.0000   0.0000   0.0000   0.2793
  13.100   0.6966   0.16460   0.15878  -0.0246  0.1204  1.0000  -1.8763   0.0000   0.0000   0.0000   0.2752
  13.200   0.7093   0.16916   0.16340  -0.0229  0.1196  1.0000  -1.9321   0.0000   0.0000   0.0000   0.2722
  13.300   0.7030   0.17000   0.16422  -0.0250  0.1193  1.0000  -1.8821   0.0000   0.0000   0.0000   0.2753
  13.400   0.6951   0.17051   0.16469  -0.0273  0.1190  1.0000  -1.8238   0.0000   0.0000   0.0000   0.2790
  13.500   0.6855   0.17063   0.16473  -0.0300  0.1183  1.0000  -1.7574   0.0000   0.0000   0.0000   0.2833
  13.600   0.6772   0.17074   0.16480  -0.0323  0.1168  1.0000  -1.6978   0.0000   0.0000   0.0000   0.2870
  13.700   0.6749   0.17166   0.16571  -0.0337  0.1148  1.0000  -1.6711   0.0000   0.0000   0.0000   0.2891
  13.800   0.6755   0.17295   0.16699  -0.0345  0.1130  1.0000  -1.6618   0.0000   0.0000   0.0000   0.2902
  13.900   0.6772   0.17433   0.16838  -0.0352  0.1114  1.0000  -1.6603   0.0000   0.0000   0.0000   0.2909
  14.000   0.6796   0.17576   0.16980  -0.0356  0.1098  1.0000  -1.6642   0.0000   0.0000   0.0000   0.2913
  14.100   0.6828   0.17723   0.17132  -0.0360  0.1084  1.0000  -1.6704   0.0000   0.0000   0.0000   0.2915
  14.200   0.6869   0.17877   0.17288  -0.0361  0.1071  1.0000  -1.6849   0.0000   0.0000   0.0000   0.2913
  14.300   0.6922   0.18051   0.17462  -0.0360  0.1059  1.0000  -1.7080   0.0000   0.0000   0.0000   0.2906
  14.400   0.7001   0.18276   0.17689  -0.0354  0.1048  1.0000  -1.7462   0.0000   0.0000   0.0000   0.2891
  14.500   0.7166   0.18706   0.18124  -0.0334  0.1036  1.0000  -1.8307   0.0000   0.0000   0.0000   0.2852
  14.600   0.7305   0.19261   0.18679  -0.0315  0.1027  1.0000  -1.8945   0.0000   0.0000   0.0000   0.2817
  14.700   0.7264   0.19323   0.18739  -0.0334  0.1026  1.0000  -1.8498   0.0000   0.0000   0.0000   0.2844
  14.800   0.7213   0.19354   0.18768  -0.0355  0.1023  1.0000  -1.7993   0.0000   0.0000   0.0000   0.2875
  14.900   0.7149   0.19333   0.18745  -0.0376  0.1019  1.0000  -1.7452   0.0000   0.0000   0.0000   0.2908
  15.000   0.7085   0.19289   0.18698  -0.0398  0.1012  1.0000  -1.6908   0.0000   0.0000   0.0000   0.2941


