xflr5 v6.55

 Calculated polar for: NACA 2410

 1 1 Reynolds number fixed          Mach number fixed         

 xtrf =   1.000 (top)        1.000 (bottom)
 Mach =   0.200     Re =     0.115 e 6     Ncrit =   9.000

  alpha     CL        CD       CDp       Cm    Top Xtr Bot Xtr   Cpmin    Chinge    XCp    
 ------- -------- --------- --------- -------- ------- ------- -------- --------- ---------
   0.000   0.2375   0.01418   0.00756  -0.0615  0.9238  1.0000  -0.4925   0.0000   0.0000   0.0000   0.5082
   0.100   0.2449   0.01422   0.00757  -0.0607  0.9148  1.0000  -0.4990   0.0000   0.0000   0.0000   0.4971
   0.200   0.2623   0.01416   0.00749  -0.0618  0.9097  1.0000  -0.5118   0.0000   0.0000   0.0000   0.4846
   0.300   0.2819   0.01407   0.00739  -0.0632  0.9058  1.0000  -0.5260   0.0000   0.0000   0.0000   0.4732
   0.400   0.3025   0.01397   0.00726  -0.0648  0.9026  1.0000  -0.5409   0.0000   0.0000   0.0000   0.4631
   0.500   0.3146   0.01396   0.00724  -0.0649  0.8959  1.0000  -0.5512   0.0000   0.0000   0.0000   0.4549
   0.600   0.3264   0.01394   0.00720  -0.0648  0.8886  1.0000  -0.5617   0.0000   0.0000   0.0000   0.4472
   0.700   0.3429   0.01384   0.00709  -0.0656  0.8835  1.0000  -0.5753   0.0000   0.0000   0.0000   0.4397
   0.800   0.3607   0.01372   0.00695  -0.0665  0.8794  1.0000  -0.5900   0.0000   0.0000   0.0000   0.4328
   0.900   0.3747   0.01367   0.00689  -0.0668  0.8738  1.0000  -0.6030   0.0000   0.0000   0.0000   0.4266
   1.000   0.3832   0.01369   0.00690  -0.0661  0.8650  1.0000  -0.6124   0.0000   0.0000   0.0000   0.4207
   1.100   0.3969   0.01361   0.00681  -0.0662  0.8590  1.0000  -0.6258   0.0000   0.0000   0.0000   0.4151
   1.200   0.4125   0.01350   0.00668  -0.0667  0.8542  1.0000  -0.6412   0.0000   0.0000   0.0000   0.4097
   1.300   0.4244   0.01347   0.00663  -0.0665  0.8478  1.0000  -0.6541   0.0000   0.0000   0.0000   0.4047
   1.400   0.4330   0.01350   0.00666  -0.0658  0.8389  1.0000  -0.6655   0.0000   0.0000   0.0000   0.3999
   1.500   0.4456   0.01343   0.00657  -0.0657  0.8324  1.0000  -0.6802   0.0000   0.0000   0.0000   0.3954
   1.600   0.4595   0.01334   0.00646  -0.0658  0.8272  1.0000  -0.6971   0.0000   0.0000   0.0000   0.3910
   1.700   0.4691   0.01338   0.00648  -0.0653  0.8194  1.0000  -0.7111   0.0000   0.0000   0.0000   0.3868
   1.800   0.4787   0.01339   0.00649  -0.0647  0.8108  1.0000  -0.7259   0.0000   0.0000   0.0000   0.3828
   1.900   0.4907   0.01334   0.00646  -0.0645  0.8041  1.0000  -0.7447   0.0000   0.0000   0.0000   0.3790
   2.000   0.5035   0.01329   0.00636  -0.0643  0.7987  1.0000  -0.7659   0.0000   0.0000   0.0000   0.3752
   2.100   0.5120   0.01337   0.00645  -0.0637  0.7896  1.0000  -0.7840   0.0000   0.0000   0.0000   0.3718
   2.200   0.5222   0.01339   0.00646  -0.0632  0.7814  1.0000  -0.8053   0.0000   0.0000   0.0000   0.3684
   2.300   0.5338   0.01336   0.00639  -0.0629  0.7747  1.0000  -0.8311   0.0000   0.0000   0.0000   0.3651
   2.400   0.5454   0.01336   0.00636  -0.0626  0.7683  1.0000  -0.8572   0.0000   0.0000   0.0000   0.3619
   2.500   0.5541   0.01345   0.00647  -0.0620  0.7589  1.0000  -0.8825   0.0000   0.0000   0.0000   0.3590
   2.600   0.5646   0.01347   0.00647  -0.0616  0.7510  1.0000  -0.9110   0.0000   0.0000   0.0000   0.3561
   2.700   0.5761   0.01347   0.00642  -0.0612  0.7445  1.0000  -0.9414   0.0000   0.0000   0.0000   0.3532
   2.800   0.5862   0.01355   0.00648  -0.0608  0.7366  1.0000  -0.9738   0.0000   0.0000   0.0000   0.3506
   2.900   0.5957   0.01362   0.00656  -0.0603  0.7277  1.0000  -1.0055   0.0000   0.0000   0.0000   0.3480
   3.000   0.6064   0.01365   0.00656  -0.0599  0.7200  1.0000  -1.0399   0.0000   0.0000   0.0000   0.3455
   3.100   0.6180   0.01368   0.00653  -0.0595  0.7136  1.0000  -1.0762   0.0000   0.0000   0.0000   0.3430
   3.200   0.6271   0.01378   0.00666  -0.0591  0.7044  1.0000  -1.1094   0.0000   0.0000   0.0000   0.3408
   3.300   0.6371   0.01385   0.00672  -0.0586  0.6958  1.0000  -1.1491   0.0000   0.0000   0.0000   0.3385
   3.400   0.6480   0.01388   0.00672  -0.0582  0.6884  1.0000  -1.1912   0.0000   0.0000   0.0000   0.3362
   3.500   0.6586   0.01397   0.00676  -0.0578  0.6808  1.0000  -1.2331   0.0000   0.0000   0.0000   0.3341
   3.600   0.6679   0.01406   0.00688  -0.0573  0.6713  1.0000  -1.2722   0.0000   0.0000   0.0000   0.3321
   3.700   0.6782   0.01411   0.00691  -0.0568  0.6628  1.0000  -1.3142   0.0000   0.0000   0.0000   0.3300
   3.800   0.6894   0.01418   0.00697  -0.0564  0.6554  1.0000  -1.3595   0.0000   0.0000   0.0000   0.3280
   3.900   0.6986   0.01428   0.00711  -0.0559  0.6459  1.0000  -1.3995   0.0000   0.0000   0.0000   0.3261
   4.000   0.7084   0.01435   0.00718  -0.0554  0.6364  1.0000  -1.4462   0.0000   0.0000   0.0000   0.3242
   4.100   0.7191   0.01441   0.00717  -0.0550  0.6281  1.0000  -1.4991   0.0000   0.0000   0.0000   0.3223
   4.200   0.7288   0.01451   0.00728  -0.0545  0.6187  1.0000  -1.5496   0.0000   0.0000   0.0000   0.3205
   4.300   0.7383   0.01458   0.00736  -0.0540  0.6083  1.0000  -1.6002   0.0000   0.0000   0.0000   0.3188
   4.400   0.7487   0.01465   0.00737  -0.0534  0.5992  1.0000  -1.6542   0.0000   0.0000   0.0000   0.3170
   4.500   0.7583   0.01475   0.00746  -0.0529  0.5892  1.0000  -1.7063   0.0000   0.0000   0.0000   0.3153
   4.600   0.7677   0.01482   0.00755  -0.0524  0.5783  1.0000  -1.7583   0.0000   0.0000   0.0000   0.3136
   4.700   0.7779   0.01491   0.00756  -0.0519  0.5685  1.0000  -1.8137   0.0000   0.0000   0.0000   0.3120
   4.800   0.7872   0.01500   0.00768  -0.0513  0.5575  1.0000  -1.8661   0.0000   0.0000   0.0000   0.3104
   4.900   0.7966   0.01508   0.00775  -0.0507  0.5460  1.0000  -1.9196   0.0000   0.0000   0.0000   0.3088
   5.000   0.8066   0.01520   0.00777  -0.0502  0.5359  1.0000  -1.9760   0.0000   0.0000   0.0000   0.3072
   5.100   0.8155   0.01527   0.00791  -0.0496  0.5232  1.0000  -2.0283   0.0000   0.0000   0.0000   0.3058
   5.200   0.8249   0.01537   0.00795  -0.0490  0.5116  1.0000  -2.0889   0.0000   0.0000   0.0000   0.3042
   5.300   0.8340   0.01547   0.00807  -0.0484  0.4991  1.0000  -2.1541   0.0000   0.0000   0.0000   0.3028
   5.400   0.8430   0.01557   0.00814  -0.0478  0.4860  1.0000  -2.2200   0.0000   0.0000   0.0000   0.3013
   5.500   0.8521   0.01570   0.00824  -0.0472  0.4732  1.0000  -2.2866   0.0000   0.0000   0.0000   0.2999
   5.600   0.8608   0.01579   0.00834  -0.0465  0.4583  1.0000  -2.3523   0.0000   0.0000   0.0000   0.2985
   5.700   0.8694   0.01593   0.00851  -0.0459  0.4437  1.0000  -2.4116   0.0000   0.0000   0.0000   0.2971
   5.800   0.8778   0.01606   0.00861  -0.0452  0.4273  1.0000  -2.4762   0.0000   0.0000   0.0000   0.2956
   5.900   0.8862   0.01620   0.00874  -0.0445  0.4097  1.0000  -2.5411   0.0000   0.0000   0.0000   0.2943
   6.000   0.8939   0.01637   0.00885  -0.0437  0.3908  1.0000  -2.6053   0.0000   0.0000   0.0000   0.2929
   6.100   0.9013   0.01657   0.00897  -0.0429  0.3691  1.0000  -2.6684   0.0000   0.0000   0.0000   0.2914
   6.200   0.9085   0.01680   0.00913  -0.0421  0.3442  1.0000  -2.7303   0.0000   0.0000   0.0000   0.2900
   6.300   0.9149   0.01712   0.00932  -0.0412  0.3166  1.0000  -2.7893   0.0000   0.0000   0.0000   0.2886
   6.400   0.9207   0.01751   0.00957  -0.0402  0.2840  1.0000  -2.8453   0.0000   0.0000   0.0000   0.2872
   6.500   0.9255   0.01805   0.00989  -0.0392  0.2488  1.0000  -2.8962   0.0000   0.0000   0.0000   0.2857
   6.600   0.9295   0.01870   0.01030  -0.0381  0.2164  1.0000  -2.9428   0.0000   0.0000   0.0000   0.2842
   6.700   0.9340   0.01937   0.01077  -0.0371  0.1879  1.0000  -2.9884   0.0000   0.0000   0.0000   0.2829
   6.800   0.9387   0.02005   0.01128  -0.0361  0.1666  1.0000  -3.0332   0.0000   0.0000   0.0000   0.2815
   6.900   0.9435   0.02074   0.01182  -0.0351  0.1510  1.0000  -3.0770   0.0000   0.0000   0.0000   0.2801
   7.000   0.9485   0.02141   0.01237  -0.0342  0.1392  1.0000  -3.1217   0.0000   0.0000   0.0000   0.2788
   7.100   0.9551   0.02200   0.01294  -0.0333  0.1291  1.0000  -3.1670   0.0000   0.0000   0.0000   0.2776
   7.200   0.9605   0.02266   0.01349  -0.0324  0.1214  1.0000  -3.2135   0.0000   0.0000   0.0000   0.2764
   7.300   0.9675   0.02325   0.01408  -0.0317  0.1142  1.0000  -3.2596   0.0000   0.0000   0.0000   0.2752
   7.400   0.9745   0.02376   0.01456  -0.0310  0.1077  1.0000  -3.3122   0.0000   0.0000   0.0000   0.2742
   7.500   0.9801   0.02457   0.01523  -0.0302  0.1022  1.0000  -3.3591   0.0000   0.0000   0.0000   0.2731
   7.600   0.9883   0.02496   0.01572  -0.0296  0.0967  1.0000  -3.4115   0.0000   0.0000   0.0000   0.2721
   7.700   0.9958   0.02547   0.01622  -0.0290  0.0923  1.0000  -3.4648   0.0000   0.0000   0.0000   0.2712
   7.800   1.0028   0.02622   0.01688  -0.0284  0.0888  1.0000  -3.5151   0.0000   0.0000   0.0000   0.2703
   7.900   1.0112   0.02709   0.01773  -0.0279  0.0857  1.0000  -3.5585   0.0000   0.0000   0.0000   0.2694
   8.000   1.0201   0.02766   0.01846  -0.0274  0.0829  1.0000  -3.6070   0.0000   0.0000   0.0000   0.2685
   8.100   1.0289   0.02829   0.01914  -0.0269  0.0801  1.0000  -3.6536   0.0000   0.0000   0.0000   0.2677
   8.200   1.0376   0.02895   0.01981  -0.0264  0.0777  1.0000  -3.7024   0.0000   0.0000   0.0000   0.2669
   8.300   1.0465   0.02970   0.02053  -0.0260  0.0755  1.0000  -3.7656   0.0000   0.0000   0.0000   0.2662
   8.400   1.0566   0.03096   0.02171  -0.0259  0.0732  1.0000  -3.8354   0.0000   0.0000   0.0000   0.2658
   8.500   1.0657   0.03191   0.02276  -0.0255  0.0715  1.0000  -3.8943   0.0000   0.0000   0.0000   0.2651
   8.600   1.0734   0.03246   0.02346  -0.0248  0.0695  1.0000  -3.9557   0.0000   0.0000   0.0000   0.2642
   8.700   1.0809   0.03303   0.02413  -0.0242  0.0671  1.0000  -4.0216   0.0000   0.0000   0.0000   0.2634
   8.800   1.0879   0.03357   0.02472  -0.0236  0.0647  1.0000  -4.0931   0.0000   0.0000   0.0000   0.2625
   8.900   1.0951   0.03415   0.02530  -0.0232  0.0626  1.0000  -4.1706   0.0000   0.0000   0.0000   0.2618
   9.000   1.1032   0.03506   0.02616  -0.0229  0.0609  1.0000  -4.2475   0.0000   0.0000   0.0000   0.2613
   9.100   1.1124   0.03684   0.02796  -0.0228  0.0595  1.0000  -4.3023   0.0000   0.0000   0.0000   0.2610
   9.200   1.1189   0.03794   0.02920  -0.0221  0.0587  1.0000  -4.3453   0.0000   0.0000   0.0000   0.2602
   9.300   1.1246   0.03879   0.03023  -0.0213  0.0581  1.0000  -4.3878   0.0000   0.0000   0.0000   0.2592
   9.400   1.1299   0.03975   0.03138  -0.0204  0.0574  1.0000  -4.4257   0.0000   0.0000   0.0000   0.2582
   9.500   1.1347   0.04081   0.03261  -0.0196  0.0567  1.0000  -4.4595   0.0000   0.0000   0.0000   0.2573
   9.600   1.1388   0.04194   0.03391  -0.0187  0.0561  1.0000  -4.4895   0.0000   0.0000   0.0000   0.2563
   9.700   1.1423   0.04312   0.03526  -0.0177  0.0555  1.0000  -4.5157   0.0000   0.0000   0.0000   0.2554
   9.800   1.1451   0.04434   0.03665  -0.0168  0.0550  1.0000  -4.5382   0.0000   0.0000   0.0000   0.2544
   9.900   1.1470   0.04561   0.03808  -0.0158  0.0546  1.0000  -4.5569   0.0000   0.0000   0.0000   0.2534
  10.000   1.1482   0.04691   0.03955  -0.0147  0.0543  1.0000  -4.5718   0.0000   0.0000   0.0000   0.2523
  10.100   1.1486   0.04825   0.04105  -0.0137  0.0540  1.0000  -4.5826   0.0000   0.0000   0.0000   0.2513
  10.200   1.1480   0.04962   0.04257  -0.0126  0.0538  1.0000  -4.5893   0.0000   0.0000   0.0000   0.2503
  10.300   1.1465   0.05102   0.04412  -0.0114  0.0536  1.0000  -4.5917   0.0000   0.0000   0.0000   0.2492
  10.400   1.1441   0.05244   0.04569  -0.0103  0.0535  1.0000  -4.5898   0.0000   0.0000   0.0000   0.2481
  10.500   1.1407   0.05389   0.04728  -0.0091  0.0535  1.0000  -4.5840   0.0000   0.0000   0.0000   0.2470
  10.600   1.1359   0.05529   0.04882  -0.0078  0.0535  1.0000  -4.5739   0.0000   0.0000   0.0000   0.2458
  10.700   1.1301   0.05668   0.05034  -0.0065  0.0535  1.0000  -4.5604   0.0000   0.0000   0.0000   0.2445
  10.800   1.1237   0.05812   0.05189  -0.0052  0.0536  1.0000  -4.5439   0.0000   0.0000   0.0000   0.2433
  10.900   1.1166   0.05961   0.05350  -0.0041  0.0537  1.0000  -4.5244   0.0000   0.0000   0.0000   0.2422
  11.000   1.1089   0.06117   0.05516  -0.0032  0.0538  1.0000  -4.5022   0.0000   0.0000   0.0000   0.2413
  11.100   1.1007   0.06280   0.05690  -0.0024  0.0539  1.0000  -4.4772   0.0000   0.0000   0.0000   0.2405
  11.200   1.0921   0.06451   0.05872  -0.0019  0.0541  1.0000  -4.4496   0.0000   0.0000   0.0000   0.2398
  11.300   1.0831   0.06632   0.06063  -0.0016  0.0543  1.0000  -4.4194   0.0000   0.0000   0.0000   0.2394
  11.400   1.0737   0.06823   0.06263  -0.0015  0.0544  1.0000  -4.3864   0.0000   0.0000   0.0000   0.2392
  11.500   1.0640   0.07026   0.06476  -0.0016  0.0546  1.0000  -4.3506   0.0000   0.0000   0.0000   0.2392
  11.600   1.0540   0.07244   0.06702  -0.0021  0.0548  1.0000  -4.3118   0.0000   0.0000   0.0000   0.2395
  11.700   1.0436   0.07475   0.06942  -0.0027  0.0550  1.0000  -4.2697   0.0000   0.0000   0.0000   0.2400
  11.800   1.0330   0.07721   0.07196  -0.0037  0.0552  1.0000  -4.2242   0.0000   0.0000   0.0000   0.2408
  11.900   1.0222   0.07986   0.07468  -0.0049  0.0555  1.0000  -4.1749   0.0000   0.0000   0.0000   0.2419
  12.000   1.0112   0.08270   0.07759  -0.0064  0.0557  1.0000  -4.1214   0.0000   0.0000   0.0000   0.2433
  12.100   1.0000   0.08574   0.08069  -0.0081  0.0560  1.0000  -4.0634   0.0000   0.0000   0.0000   0.2450
  12.200   0.9886   0.08896   0.08397  -0.0101  0.0563  1.0000  -4.0009   0.0000   0.0000   0.0000   0.2469
  12.300   0.9772   0.09237   0.08743  -0.0123  0.0566  1.0000  -3.9341   0.0000   0.0000   0.0000   0.2491
  12.400   0.9660   0.09595   0.09106  -0.0145  0.0570  1.0000  -3.8636   0.0000   0.0000   0.0000   0.2516
  12.500   0.9552   0.09965   0.09479  -0.0169  0.0573  1.0000  -3.7914   0.0000   0.0000   0.0000   0.2541
  12.600   0.9454   0.10337   0.09853  -0.0191  0.0577  1.0000  -3.7206   0.0000   0.0000   0.0000   0.2565
  12.700   0.9368   0.10697   0.10215  -0.0211  0.0581  1.0000  -3.6556   0.0000   0.0000   0.0000   0.2588
  12.800   0.9301   0.11031   0.10549  -0.0228  0.0585  1.0000  -3.6016   0.0000   0.0000   0.0000   0.2606
  12.900   0.9259   0.11321   0.10838  -0.0237  0.0588  1.0000  -3.5663   0.0000   0.0000   0.0000   0.2617
  13.100   0.8620   0.13832   0.13351  -0.0405  0.0708  1.0000  -2.6967   0.0000   0.0000   0.0000   0.2839
  13.200   0.8671   0.13920   0.13440  -0.0395  0.0717  1.0000  -2.7462   0.0000   0.0000   0.0000   0.2823
  13.300   0.2949   0.03790   0.03398   0.0084  0.1561  1.0000  -0.7846   0.0000   0.0000   0.0000   0.2243
  13.400   0.2936   0.03894   0.03501   0.0073  0.1559  1.0000  -0.7622   0.0000   0.0000   0.0000   0.2280
  13.500   0.2887   0.03978   0.03583   0.0058  0.1553  1.0000  -0.7259   0.0000   0.0000   0.0000   0.2330
  13.600   0.2800   0.04027   0.03631   0.0038  0.1528  1.0000  -0.6747   0.0000   0.0000   0.0000   0.2397
  13.700   0.2795   0.04110   0.03714   0.0029  0.1499  1.0000  -0.6584   0.0000   0.0000   0.0000   0.2431
  13.800   0.2817   0.04204   0.03807   0.0023  0.1476  1.0000  -0.6546   0.0000   0.0000   0.0000   0.2451
  13.900   0.2851   0.04301   0.03904   0.0019  0.1455  1.0000  -0.6562   0.0000   0.0000   0.0000   0.2465
  14.000   0.2894   0.04398   0.04001   0.0016  0.1436  1.0000  -0.6625   0.0000   0.0000   0.0000   0.2474
  14.100   0.2950   0.04500   0.04103   0.0015  0.1419  1.0000  -0.6749   0.0000   0.0000   0.0000   0.2476
  14.200   0.3025   0.04613   0.04217   0.0016  0.1404  1.0000  -0.6956   0.0000   0.0000   0.0000   0.2469
  14.300   0.3133   0.04758   0.04368   0.0021  0.1391  1.0000  -0.7268   0.0000   0.0000   0.0000   0.2449
  14.400   0.8487   0.17805   0.17323  -0.0574  0.1043  1.0000  -2.0748   0.0000   0.0000   0.0000   0.3040
  14.500   0.8587   0.18013   0.17534  -0.0557  0.1036  1.0000  -2.1378   0.0000   0.0000   0.0000   0.3012
  14.600   0.8687   0.18402   0.17923  -0.0538  0.1028  1.0000  -2.1947   0.0000   0.0000   0.0000   0.2981
  14.700   0.8639   0.18590   0.18109  -0.0560  0.1026  1.0000  -2.1417   0.0000   0.0000   0.0000   0.3009
  14.800   0.8578   0.18753   0.18270  -0.0587  0.1023  1.0000  -2.0766   0.0000   0.0000   0.0000   0.3044
  14.900   0.8454   0.18864   0.18377  -0.0630  0.1013  1.0000  -1.9658   0.0000   0.0000   0.0000   0.3104
  15.000   0.8363   0.18966   0.18475  -0.0663  0.0991  1.0000  -1.8828   0.0000   0.0000   0.0000   0.3151


