xflr5 v6.55

 Calculated polar for: NACA 2410

 1 1 Reynolds number fixed          Mach number fixed         

 xtrf =   1.000 (top)        1.000 (bottom)
 Mach =   0.200     Re =     0.025 e 6     Ncrit =   9.000

  alpha     CL        CD       CDp       Cm    Top Xtr Bot Xtr   Cpmin    Chinge    XCp    
 ------- -------- --------- --------- -------- ------- ------- -------- --------- ---------
   0.000   0.0049   0.02630   0.01193  -0.0205  1.0000  1.0000  -0.5703   0.0000   0.0000   0.0000   4.4447
   0.100   0.0121   0.02648   0.01205  -0.0203  1.0000  1.0000  -0.5497   0.0000   0.0000   0.0000   1.9247
   0.200   0.0194   0.02668   0.01217  -0.0201  1.0000  1.0000  -0.5292   0.0000   0.0000   0.0000   1.2885
   0.300   0.0266   0.02688   0.01232  -0.0199  1.0000  1.0000  -0.5090   0.0000   0.0000   0.0000   0.9991
   0.400   0.0337   0.02709   0.01247  -0.0197  1.0000  1.0000  -0.4888   0.0000   0.0000   0.0000   0.8340
   0.500   0.0409   0.02732   0.01264  -0.0196  1.0000  1.0000  -0.4689   0.0000   0.0000   0.0000   0.7274
   0.600   0.0480   0.02755   0.01282  -0.0195  1.0000  1.0000  -0.4491   0.0000   0.0000   0.0000   0.6531
   0.700   0.0551   0.02780   0.01302  -0.0193  1.0000  1.0000  -0.4306   0.0000   0.0000   0.0000   0.5984
   0.800   0.0621   0.02805   0.01323  -0.0192  1.0000  1.0000  -0.4137   0.0000   0.0000   0.0000   0.5565
   0.900   0.0691   0.02832   0.01345  -0.0191  1.0000  1.0000  -0.4084   0.0000   0.0000   0.0000   0.5235
   1.000   0.0761   0.02859   0.01369  -0.0191  1.0000  1.0000  -0.4134   0.0000   0.0000   0.0000   0.4968
   1.100   0.0830   0.02888   0.01394  -0.0190  1.0000  1.0000  -0.4184   0.0000   0.0000   0.0000   0.4749
   1.200   0.0900   0.02918   0.01421  -0.0189  1.0000  1.0000  -0.4233   0.0000   0.0000   0.0000   0.4566
   1.300   0.0968   0.02949   0.01449  -0.0189  1.0000  1.0000  -0.4287   0.0000   0.0000   0.0000   0.4411
   1.400   0.1037   0.02981   0.01478  -0.0189  1.0000  1.0000  -0.4341   0.0000   0.0000   0.0000   0.4279
   1.500   0.1105   0.03014   0.01509  -0.0189  1.0000  1.0000  -0.4394   0.0000   0.0000   0.0000   0.4165
   1.600   0.1173   0.03048   0.01541  -0.0189  1.0000  1.0000  -0.4446   0.0000   0.0000   0.0000   0.4065
   1.700   0.1240   0.03084   0.01574  -0.0189  1.0000  1.0000  -0.4498   0.0000   0.0000   0.0000   0.3978
   1.800   0.1307   0.03120   0.01608  -0.0189  1.0000  1.0000  -0.4556   0.0000   0.0000   0.0000   0.3902
   1.900   0.1374   0.03158   0.01644  -0.0189  1.0000  1.0000  -0.4612   0.0000   0.0000   0.0000   0.3834
   2.000   0.1440   0.03197   0.01681  -0.0190  1.0000  1.0000  -0.4668   0.0000   0.0000   0.0000   0.3773
   2.100   0.1506   0.03237   0.01719  -0.0191  1.0000  1.0000  -0.4722   0.0000   0.0000   0.0000   0.3719
   2.200   0.1571   0.03278   0.01759  -0.0191  1.0000  1.0000  -0.4783   0.0000   0.0000   0.0000   0.3670
   2.300   0.1637   0.03320   0.01800  -0.0192  1.0000  1.0000  -0.4844   0.0000   0.0000   0.0000   0.3626
   2.400   0.1701   0.03364   0.01843  -0.0193  1.0000  1.0000  -0.4904   0.0000   0.0000   0.0000   0.3587
   2.500   0.1766   0.03408   0.01887  -0.0194  1.0000  1.0000  -0.4962   0.0000   0.0000   0.0000   0.3551
   2.600   0.1829   0.03454   0.01932  -0.0196  1.0000  1.0000  -0.5027   0.0000   0.0000   0.0000   0.3518
   2.700   0.1893   0.03501   0.01979  -0.0197  1.0000  1.0000  -0.5093   0.0000   0.0000   0.0000   0.3489
   2.800   0.1956   0.03549   0.02027  -0.0198  1.0000  1.0000  -0.5158   0.0000   0.0000   0.0000   0.3462
   2.900   0.2019   0.03598   0.02076  -0.0200  1.0000  1.0000  -0.5223   0.0000   0.0000   0.0000   0.3437
   3.000   0.2081   0.03648   0.02127  -0.0202  1.0000  1.0000  -0.5296   0.0000   0.0000   0.0000   0.3415
   3.100   0.2143   0.03700   0.02179  -0.0203  1.0000  1.0000  -0.5367   0.0000   0.0000   0.0000   0.3394
   3.200   0.2205   0.03752   0.02233  -0.0205  1.0000  1.0000  -0.5438   0.0000   0.0000   0.0000   0.3375
   3.300   0.2266   0.03806   0.02288  -0.0207  1.0000  1.0000  -0.5516   0.0000   0.0000   0.0000   0.3358
   3.400   0.2326   0.03861   0.02344  -0.0209  1.0000  1.0000  -0.5595   0.0000   0.0000   0.0000   0.3342
   3.500   0.2386   0.03918   0.02402  -0.0211  1.0000  1.0000  -0.5672   0.0000   0.0000   0.0000   0.3328
   3.600   0.2446   0.03975   0.02462  -0.0213  1.0000  1.0000  -0.5758   0.0000   0.0000   0.0000   0.3315
   3.700   0.2505   0.04034   0.02522  -0.0216  1.0000  1.0000  -0.5845   0.0000   0.0000   0.0000   0.3302
   3.800   0.2563   0.04094   0.02585  -0.0218  1.0000  1.0000  -0.5931   0.0000   0.0000   0.0000   0.3291
   3.900   0.2621   0.04156   0.02648  -0.0221  1.0000  1.0000  -0.6026   0.0000   0.0000   0.0000   0.3281
   4.000   0.2678   0.04219   0.02713  -0.0223  1.0000  1.0000  -0.6123   0.0000   0.0000   0.0000   0.3272
   4.100   0.2735   0.04283   0.02780  -0.0226  1.0000  1.0000  -0.6219   0.0000   0.0000   0.0000   0.3264
   4.200   0.2791   0.04348   0.02848  -0.0228  1.0000  1.0000  -0.6323   0.0000   0.0000   0.0000   0.3256
   4.300   0.2846   0.04415   0.02918  -0.0231  1.0000  1.0000  -0.6432   0.0000   0.0000   0.0000   0.3249
   4.400   0.2901   0.04484   0.02997  -0.0234  1.0000  1.0000  -0.6539   0.0000   0.0000   0.0000   0.3243
   4.500   0.2955   0.04554   0.03070  -0.0237  1.0000  1.0000  -0.6648   0.0000   0.0000   0.0000   0.3238
   4.600   0.3009   0.04625   0.03144  -0.0240  1.0000  1.0000  -0.6770   0.0000   0.0000   0.0000   0.3233
   4.700   0.3243   0.04768   0.03296  -0.0280  0.9893  1.0000  -0.7096   0.0000   0.0000   0.0000   0.3298
   4.800   0.3505   0.04923   0.03461  -0.0323  0.9755  1.0000  -0.7486   0.0000   0.0000   0.0000   0.3359
   4.900   0.3770   0.05081   0.03629  -0.0365  0.9619  1.0000  -0.7911   0.0000   0.0000   0.0000   0.3407
   5.000   0.3881   0.05172   0.03728  -0.0380  0.9523  1.0000  -0.8130   0.0000   0.0000   0.0000   0.3415
   5.100   0.4090   0.05308   0.03874  -0.0410  0.9397  1.0000  -0.8524   0.0000   0.0000   0.0000   0.3440
   5.200   0.4347   0.05458   0.04036  -0.0447  0.9249  1.0000  -0.9017   0.0000   0.0000   0.0000   0.3467
   5.300   0.4407   0.05534   0.04118  -0.0451  0.9153  1.0000  -0.9199   0.0000   0.0000   0.0000   0.3460
   5.400   0.4702   0.05702   0.04300  -0.0492  0.9002  1.0000  -0.9763   0.0000   0.0000   0.0000   0.3485
   5.500   0.4704   0.05759   0.04362  -0.0486  0.8917  1.0000  -0.9857   0.0000   0.0000   0.0000   0.3470
   5.600   0.4988   0.05915   0.04532  -0.0522  0.8746  1.0000  -1.0507   0.0000   0.0000   0.0000   0.3485
   5.700   0.4996   0.05981   0.04603  -0.0517  0.8659  1.0000  -1.0630   0.0000   0.0000   0.0000   0.3471
   5.800   0.5280   0.06136   0.04774  -0.0551  0.8491  1.0000  -1.1290   0.0000   0.0000   0.0000   0.3481
   5.900   0.5275   0.06202   0.04845  -0.0543  0.8399  1.0000  -1.1383   0.0000   0.0000   0.0000   0.3467
   6.000   0.5543   0.06342   0.05001  -0.0572  0.8214  1.0000  -1.2028   0.0000   0.0000   0.0000   0.3468
   6.100   0.5546   0.06420   0.05097  -0.0566  0.8122  1.0000  -1.2130   0.0000   0.0000   0.0000   0.3456
   6.200   0.5799   0.06552   0.05245  -0.0589  0.7935  1.0000  -1.2751   0.0000   0.0000   0.0000   0.3451
   6.300   0.5819   0.06632   0.05332  -0.0584  0.7822  1.0000  -1.2905   0.0000   0.0000   0.0000   0.3438
   6.400   0.6031   0.06751   0.05467  -0.0599  0.7640  1.0000  -1.3556   0.0000   0.0000   0.0000   0.3428
   6.500   0.6103   0.06843   0.05567  -0.0599  0.7504  1.0000  -1.3854   0.0000   0.0000   0.0000   0.3416
   6.600   0.6248   0.06945   0.05682  -0.0604  0.7329  1.0000  -1.4348   0.0000   0.0000   0.0000   0.3401
   6.700   0.6522   0.07042   0.05799  -0.0616  0.7094  1.0000  -1.5185   0.0000   0.0000   0.0000   0.3380
   6.800   0.6462   0.07142   0.05900  -0.0605  0.7007  1.0000  -1.5130   0.0000   0.0000   0.0000   0.3371
   7.000   0.6946   0.07279   0.06077  -0.0610  0.6509  1.0000  -1.6675   0.0000   0.0000   0.0000   0.3313
   7.100   0.6861   0.07404   0.06201  -0.0600  0.6428  1.0000  -1.6525   0.0000   0.0000   0.0000   0.3309
   7.200   0.7072   0.07454   0.06269  -0.0595  0.6171  1.0000  -1.7225   0.0000   0.0000   0.0000   0.3275
   7.300   0.7297   0.07481   0.06317  -0.0585  0.5902  1.0000  -1.7969   0.0000   0.0000   0.0000   0.3236
   7.400   0.7242   0.07617   0.06453  -0.0578  0.5798  1.0000  -1.7875   0.0000   0.0000   0.0000   0.3230
   7.500   0.7408   0.07662   0.06513  -0.0565  0.5559  1.0000  -1.8439   0.0000   0.0000   0.0000   0.3195
   7.600   0.7604   0.07664   0.06533  -0.0547  0.5286  1.0000  -1.9245   0.0000   0.0000   0.0000   0.3151
   7.700   0.8853   0.06519   0.05476  -0.0412  0.4218  1.0000  -2.4271   0.0000   0.0000   0.0000   0.2898
   7.800   0.8709   0.06816   0.05772  -0.0417  0.4204  1.0000  -2.3753   0.0000   0.0000   0.0000   0.2911
   7.900   0.8570   0.07111   0.06063  -0.0423  0.4190  1.0000  -2.3249   0.0000   0.0000   0.0000   0.2925
   8.000   0.8435   0.07393   0.06341  -0.0428  0.4178  1.0000  -2.2769   0.0000   0.0000   0.0000   0.2938
   8.100   0.8307   0.07678   0.06620  -0.0435  0.4164  1.0000  -2.2303   0.0000   0.0000   0.0000   0.2953
   8.200   0.8191   0.07966   0.06904  -0.0445  0.4145  1.0000  -2.1861   0.0000   0.0000   0.0000   0.2971
   8.300   0.8097   0.08227   0.07160  -0.0452  0.4115  1.0000  -2.1504   0.0000   0.0000   0.0000   0.2986
   8.400   0.8323   0.08162   0.07109  -0.0420  0.3896  1.0000  -2.2409   0.0000   0.0000   0.0000   0.2931
   8.500   0.8220   0.08454   0.07397  -0.0431  0.3886  1.0000  -2.1987   0.0000   0.0000   0.0000   0.2951
   8.600   0.8129   0.08728   0.07666  -0.0441  0.3871  1.0000  -2.1612   0.0000   0.0000   0.0000   0.2968
   8.700   0.8049   0.08984   0.07918  -0.0450  0.3853  1.0000  -2.1281   0.0000   0.0000   0.0000   0.2983
   8.800   0.7990   0.09213   0.08144  -0.0455  0.3821  1.0000  -2.1035   0.0000   0.0000   0.0000   0.2993
   8.900   0.8173   0.09179   0.08121  -0.0426  0.3617  1.0000  -2.1806   0.0000   0.0000   0.0000   0.2944
   9.000   0.8094   0.09440   0.08378  -0.0436  0.3605  1.0000  -2.1466   0.0000   0.0000   0.0000   0.2960
   9.100   0.8025   0.09687   0.08622  -0.0445  0.3590  1.0000  -2.1165   0.0000   0.0000   0.0000   0.2975
   9.200   0.7969   0.09922   0.08855  -0.0452  0.3572  1.0000  -2.0906   0.0000   0.0000   0.0000   0.2987
   9.300   0.7925   0.10150   0.09081  -0.0459  0.3554  1.0000  -2.0687   0.0000   0.0000   0.0000   0.2998
   9.400   0.7888   0.10382   0.09310  -0.0466  0.3543  1.0000  -2.0475   0.0000   0.0000   0.0000   0.3009
   9.500   0.7850   0.10618   0.09545  -0.0474  0.3540  1.0000  -2.0253   0.0000   0.0000   0.0000   0.3021
   9.600   0.7811   0.10856   0.09781  -0.0482  0.3543  1.0000  -2.0023   0.0000   0.0000   0.0000   0.3034
   9.700   0.7775   0.11091   0.10015  -0.0490  0.3549  1.0000  -1.9800   0.0000   0.0000   0.0000   0.3047
   9.800   0.7744   0.11322   0.10245  -0.0498  0.3554  1.0000  -1.9592   0.0000   0.0000   0.0000   0.3059
   9.900   0.7715   0.11549   0.10470  -0.0506  0.3559  1.0000  -1.9397   0.0000   0.0000   0.0000   0.3070
  10.000   0.7690   0.11770   0.10691  -0.0513  0.3563  1.0000  -1.9213   0.0000   0.0000   0.0000   0.3081
  10.100   0.7667   0.11988   0.10907  -0.0520  0.3566  1.0000  -1.9041   0.0000   0.0000   0.0000   0.3091
  10.200   0.7647   0.12200   0.11120  -0.0527  0.3567  1.0000  -1.8880   0.0000   0.0000   0.0000   0.3101
  10.300   0.7629   0.12409   0.11328  -0.0534  0.3568  1.0000  -1.8725   0.0000   0.0000   0.0000   0.3111
  10.400   0.7613   0.12616   0.11534  -0.0540  0.3569  1.0000  -1.8577   0.0000   0.0000   0.0000   0.3120
  10.500   0.7599   0.12822   0.11740  -0.0547  0.3571  1.0000  -1.8434   0.0000   0.0000   0.0000   0.3129
  10.600   0.7588   0.13032   0.11949  -0.0553  0.3580  1.0000  -1.8294   0.0000   0.0000   0.0000   0.3138
  10.700   0.7585   0.13249   0.12167  -0.0561  0.3595  1.0000  -1.8166   0.0000   0.0000   0.0000   0.3147
  10.800   0.7602   0.13488   0.12406  -0.0568  0.3619  1.0000  -1.8077   0.0000   0.0000   0.0000   0.3154
  10.900   0.7742   0.13856   0.12781  -0.0577  0.3666  1.0000  -1.8245   0.0000   0.0000   0.0000   0.3152
  11.100   0.6866   0.14513   0.13402  -0.0735  0.5767  1.0000  -1.4886   0.0000   0.0000   0.0000   0.3470
  11.200   0.7105   0.15102   0.14011  -0.0752  0.5645  1.0000  -1.5220   0.0000   0.0000   0.0000   0.3459
  11.300   0.7024   0.15060   0.13967  -0.0745  0.5622  1.0000  -1.5045   0.0000   0.0000   0.0000   0.3460
  11.400   0.6959   0.15028   0.13934  -0.0738  0.5564  1.0000  -1.4906   0.0000   0.0000   0.0000   0.3458
  11.500   0.6998   0.15171   0.14079  -0.0738  0.5471  1.0000  -1.4943   0.0000   0.0000   0.0000   0.3451
  11.600   0.7113   0.15496   0.14409  -0.0746  0.5415  1.0000  -1.5082   0.0000   0.0000   0.0000   0.3446
  11.700   0.7252   0.15936   0.14856  -0.0759  0.5385  1.0000  -1.5237   0.0000   0.0000   0.0000   0.3444
  11.800   0.7373   0.16398   0.15320  -0.0773  0.5366  1.0000  -1.5345   0.0000   0.0000   0.0000   0.3445
  11.900   0.7296   0.16350   0.15269  -0.0768  0.5356  1.0000  -1.5170   0.0000   0.0000   0.0000   0.3447
  12.000   0.7212   0.16269   0.15186  -0.0762  0.5336  1.0000  -1.4988   0.0000   0.0000   0.0000   0.3449
  12.100   0.7149   0.16221   0.15135  -0.0757  0.5294  1.0000  -1.4841   0.0000   0.0000   0.0000   0.3450
  12.200   0.7142   0.16293   0.15208  -0.0756  0.5241  1.0000  -1.4782   0.0000   0.0000   0.0000   0.3449
  12.300   0.7188   0.16468   0.15385  -0.0758  0.5181  1.0000  -1.4805   0.0000   0.0000   0.0000   0.3445
  12.400   0.7532   0.17427   0.16355  -0.0781  0.5075  1.0000  -1.5272   0.0000   0.0000   0.0000   0.3427
  12.500   0.7438   0.17304   0.16229  -0.0775  0.5063  1.0000  -1.5070   0.0000   0.0000   0.0000   0.3431
  12.600   0.7344   0.17163   0.16084  -0.0769  0.5035  1.0000  -1.4872   0.0000   0.0000   0.0000   0.3435
  12.700   0.7295   0.17107   0.16027  -0.0765  0.4969  1.0000  -1.4748   0.0000   0.0000   0.0000   0.3435
  12.800   0.7359   0.17293   0.16216  -0.0766  0.4874  1.0000  -1.4808   0.0000   0.0000   0.0000   0.3426
  12.900   0.7694   0.18314   0.17247  -0.0785  0.4788  1.0000  -1.5240   0.0000   0.0000   0.0000   0.3407
  13.000   0.7603   0.18177   0.17106  -0.0781  0.4778  1.0000  -1.5036   0.0000   0.0000   0.0000   0.3413
  13.100   0.7514   0.18025   0.16951  -0.0778  0.4755  1.0000  -1.4837   0.0000   0.0000   0.0000   0.3418
  13.200   0.7461   0.17954   0.16878  -0.0776  0.4712  1.0000  -1.4693   0.0000   0.0000   0.0000   0.3422
  13.300   0.7464   0.18029   0.16953  -0.0778  0.4661  1.0000  -1.4632   0.0000   0.0000   0.0000   0.3422
  13.400   0.7504   0.18196   0.17122  -0.0780  0.4614  1.0000  -1.4624   0.0000   0.0000   0.0000   0.3419
  13.500   0.7580   0.18464   0.17393  -0.0784  0.4569  1.0000  -1.4669   0.0000   0.0000   0.0000   0.3414
  13.600   0.7720   0.18957   0.17892  -0.0792  0.4528  1.0000  -1.4957   0.0000   0.0000   0.0000   0.3404
  13.700   0.7881   0.19635   0.18572  -0.0804  0.4503  1.0000  -1.5263   0.0000   0.0000   0.0000   0.3399
  13.800   0.7788   0.19432   0.18366  -0.0802  0.4491  1.0000  -1.5048   0.0000   0.0000   0.0000   0.3406
  13.900   0.7707   0.19245   0.18176  -0.0801  0.4465  1.0000  -1.4859   0.0000   0.0000   0.0000   0.3414
  14.000   0.7671   0.19185   0.18114  -0.0801  0.4420  1.0000  -1.4766   0.0000   0.0000   0.0000   0.3418
  14.100   0.7684   0.19272   0.18201  -0.0803  0.4369  1.0000  -1.4782   0.0000   0.0000   0.0000   0.3418
  14.200   0.7734   0.19462   0.18394  -0.0806  0.4318  1.0000  -1.4882   0.0000   0.0000   0.0000   0.3414
  14.300   0.7861   0.19905   0.18842  -0.0810  0.4261  1.0000  -1.5156   0.0000   0.0000   0.0000   0.3401
  14.400   0.8019   0.20616   0.19556  -0.0818  0.4218  1.0000  -1.5466   0.0000   0.0000   0.0000   0.3391
  14.500   0.7934   0.20380   0.19316  -0.0818  0.4202  1.0000  -1.5255   0.0000   0.0000   0.0000   0.3400
  14.600   0.7870   0.20196   0.19129  -0.0820  0.4165  1.0000  -1.5090   0.0000   0.0000   0.0000   0.3409
  14.700   0.7863   0.20194   0.19126  -0.0822  0.4102  1.0000  -1.5059   0.0000   0.0000   0.0000   0.3410
  14.800   0.7925   0.20404   0.19339  -0.0823  0.4029  1.0000  -1.5195   0.0000   0.0000   0.0000   0.3403
  15.000   0.8142   0.21380   0.20320  -0.0830  0.3937  1.0000  -1.5625   0.0000   0.0000   0.0000   0.3383


