xflr5 v6.55

 Calculated polar for: NACA 2410

 1 1 Reynolds number fixed          Mach number fixed         

 xtrf =   1.000 (top)        1.000 (bottom)
 Mach =   0.200     Re =     0.190 e 6     Ncrit =   9.000

  alpha     CL        CD       CDp       Cm    Top Xtr Bot Xtr   Cpmin    Chinge    XCp    
 ------- -------- --------- --------- -------- ------- ------- -------- --------- ---------
   0.000   0.2972   0.00961   0.00439  -0.0678  0.8844  1.0000  -0.5323   0.0000   0.0000   0.0000   0.4773
   0.100   0.3095   0.00954   0.00428  -0.0677  0.8793  1.0000  -0.5426   0.0000   0.0000   0.0000   0.4679
   0.200   0.3198   0.00951   0.00422  -0.0674  0.8727  1.0000  -0.5518   0.0000   0.0000   0.0000   0.4596
   0.300   0.3289   0.00950   0.00418  -0.0668  0.8646  1.0000  -0.5602   0.0000   0.0000   0.0000   0.4520
   0.400   0.3395   0.00946   0.00411  -0.0664  0.8580  1.0000  -0.5699   0.0000   0.0000   0.0000   0.4445
   0.500   0.3512   0.00941   0.00401  -0.0663  0.8524  1.0000  -0.5808   0.0000   0.0000   0.0000   0.4373
   0.600   0.3603   0.00942   0.00400  -0.0657  0.8443  1.0000  -0.5899   0.0000   0.0000   0.0000   0.4310
   0.700   0.3699   0.00941   0.00396  -0.0652  0.8362  1.0000  -0.5995   0.0000   0.0000   0.0000   0.4248
   0.800   0.3807   0.00938   0.00389  -0.0649  0.8294  1.0000  -0.6104   0.0000   0.0000   0.0000   0.4187
   0.900   0.3914   0.00937   0.00384  -0.0645  0.8229  1.0000  -0.6216   0.0000   0.0000   0.0000   0.4131
   1.000   0.4005   0.00939   0.00384  -0.0640  0.8140  1.0000  -0.6316   0.0000   0.0000   0.0000   0.4080
   1.100   0.4106   0.00939   0.00381  -0.0636  0.8061  1.0000  -0.6431   0.0000   0.0000   0.0000   0.4029
   1.200   0.4215   0.00939   0.00374  -0.0632  0.7995  1.0000  -0.6553   0.0000   0.0000   0.0000   0.3980
   1.300   0.4311   0.00942   0.00376  -0.0628  0.7910  1.0000  -0.6669   0.0000   0.0000   0.0000   0.3936
   1.400   0.4409   0.00945   0.00375  -0.0623  0.7823  1.0000  -0.6794   0.0000   0.0000   0.0000   0.3892
   1.500   0.4514   0.00946   0.00372  -0.0619  0.7748  1.0000  -0.6928   0.0000   0.0000   0.0000   0.3850
   1.600   0.4618   0.00950   0.00370  -0.0616  0.7675  1.0000  -0.7070   0.0000   0.0000   0.0000   0.3811
   1.700   0.4714   0.00954   0.00374  -0.0611  0.7584  1.0000  -0.7214   0.0000   0.0000   0.0000   0.3774
   1.800   0.4815   0.00957   0.00373  -0.0607  0.7501  1.0000  -0.7372   0.0000   0.0000   0.0000   0.3737
   1.900   0.4921   0.00962   0.00373  -0.0604  0.7429  1.0000  -0.7548   0.0000   0.0000   0.0000   0.3702
   2.000   0.5020   0.00967   0.00378  -0.0600  0.7344  1.0000  -0.7733   0.0000   0.0000   0.0000   0.3669
   2.100   0.5119   0.00971   0.00380  -0.0596  0.7256  1.0000  -0.7937   0.0000   0.0000   0.0000   0.3638
   2.200   0.5223   0.00977   0.00379  -0.0592  0.7177  1.0000  -0.8161   0.0000   0.0000   0.0000   0.3607
   2.300   0.5327   0.00984   0.00381  -0.0589  0.7102  1.0000  -0.8405   0.0000   0.0000   0.0000   0.3577
   2.400   0.5425   0.00989   0.00387  -0.0585  0.7013  1.0000  -0.8652   0.0000   0.0000   0.0000   0.3550
   2.500   0.5527   0.00995   0.00389  -0.0581  0.6930  1.0000  -0.8931   0.0000   0.0000   0.0000   0.3522
   2.600   0.5631   0.01003   0.00389  -0.0578  0.6855  1.0000  -0.9216   0.0000   0.0000   0.0000   0.3496
   2.700   0.5732   0.01009   0.00395  -0.0575  0.6773  1.0000  -0.9513   0.0000   0.0000   0.0000   0.3471
   2.800   0.5833   0.01015   0.00400  -0.0571  0.6686  1.0000  -0.9839   0.0000   0.0000   0.0000   0.3447
   2.900   0.5935   0.01023   0.00403  -0.0567  0.6607  1.0000  -1.0173   0.0000   0.0000   0.0000   0.3423
   3.000   0.6039   0.01033   0.00406  -0.0564  0.6532  1.0000  -1.0512   0.0000   0.0000   0.0000   0.3401
   3.100   0.6140   0.01038   0.00414  -0.0561  0.6445  1.0000  -1.0845   0.0000   0.0000   0.0000   0.3379
   3.200   0.6241   0.01045   0.00418  -0.0557  0.6359  1.0000  -1.1224   0.0000   0.0000   0.0000   0.3358
   3.300   0.6343   0.01055   0.00421  -0.0554  0.6281  1.0000  -1.1631   0.0000   0.0000   0.0000   0.3337
   3.400   0.6445   0.01063   0.00428  -0.0550  0.6199  1.0000  -1.2037   0.0000   0.0000   0.0000   0.3317
   3.500   0.6546   0.01070   0.00435  -0.0547  0.6109  1.0000  -1.2445   0.0000   0.0000   0.0000   0.3298
   3.600   0.6647   0.01079   0.00439  -0.0543  0.6023  1.0000  -1.2860   0.0000   0.0000   0.0000   0.3279
   3.700   0.6749   0.01090   0.00444  -0.0540  0.5942  1.0000  -1.3280   0.0000   0.0000   0.0000   0.3260
   3.800   0.6850   0.01096   0.00458  -0.0536  0.5848  1.0000  -1.3708   0.0000   0.0000   0.0000   0.3243
   3.900   0.6950   0.01104   0.00463  -0.0532  0.5755  1.0000  -1.4145   0.0000   0.0000   0.0000   0.3225
   4.000   0.7049   0.01117   0.00467  -0.0528  0.5668  1.0000  -1.4652   0.0000   0.0000   0.0000   0.3208
   4.100   0.7150   0.01123   0.00477  -0.0525  0.5574  1.0000  -1.5162   0.0000   0.0000   0.0000   0.3192
   4.200   0.7250   0.01131   0.00483  -0.0521  0.5475  1.0000  -1.5679   0.0000   0.0000   0.0000   0.3176
   4.300   0.7348   0.01144   0.00488  -0.0517  0.5383  1.0000  -1.6200   0.0000   0.0000   0.0000   0.3159
   4.400   0.7449   0.01151   0.00498  -0.0514  0.5286  1.0000  -1.6729   0.0000   0.0000   0.0000   0.3145
   4.500   0.7548   0.01160   0.00505  -0.0510  0.5183  1.0000  -1.7260   0.0000   0.0000   0.0000   0.3129
   4.600   0.7644   0.01175   0.00511  -0.0506  0.5086  1.0000  -1.7793   0.0000   0.0000   0.0000   0.3114
   4.700   0.7745   0.01181   0.00521  -0.0502  0.4981  1.0000  -1.8337   0.0000   0.0000   0.0000   0.3100
   4.800   0.7842   0.01192   0.00529  -0.0498  0.4872  1.0000  -1.8880   0.0000   0.0000   0.0000   0.3086
   4.900   0.7938   0.01206   0.00537  -0.0494  0.4771  1.0000  -1.9424   0.0000   0.0000   0.0000   0.3072
   5.000   0.8037   0.01214   0.00548  -0.0490  0.4652  1.0000  -1.9980   0.0000   0.0000   0.0000   0.3059
   5.100   0.8130   0.01228   0.00556  -0.0486  0.4534  1.0000  -2.0554   0.0000   0.0000   0.0000   0.3045
   5.200   0.8228   0.01238   0.00567  -0.0482  0.4414  1.0000  -2.1229   0.0000   0.0000   0.0000   0.3033
   5.300   0.8322   0.01252   0.00576  -0.0477  0.4281  1.0000  -2.1899   0.0000   0.0000   0.0000   0.3020
   5.400   0.8416   0.01265   0.00587  -0.0473  0.4148  1.0000  -2.2578   0.0000   0.0000   0.0000   0.3007
   5.500   0.8508   0.01280   0.00597  -0.0468  0.3995  1.0000  -2.3252   0.0000   0.0000   0.0000   0.2994
   5.600   0.8601   0.01294   0.00615  -0.0464  0.3838  1.0000  -2.3892   0.0000   0.0000   0.0000   0.2982
   5.700   0.8686   0.01314   0.00627  -0.0458  0.3668  1.0000  -2.4529   0.0000   0.0000   0.0000   0.2969
   5.800   0.8775   0.01332   0.00640  -0.0453  0.3464  1.0000  -2.5199   0.0000   0.0000   0.0000   0.2957
   5.900   0.8858   0.01355   0.00655  -0.0448  0.3244  1.0000  -2.5861   0.0000   0.0000   0.0000   0.2945
   6.000   0.8937   0.01382   0.00672  -0.0442  0.2999  1.0000  -2.6512   0.0000   0.0000   0.0000   0.2933
   6.100   0.9012   0.01415   0.00691  -0.0435  0.2732  1.0000  -2.7150   0.0000   0.0000   0.0000   0.2921
   6.200   0.9081   0.01454   0.00715  -0.0428  0.2451  1.0000  -2.7770   0.0000   0.0000   0.0000   0.2908
   6.300   0.9149   0.01497   0.00742  -0.0422  0.2165  1.0000  -2.8381   0.0000   0.0000   0.0000   0.2896
   6.400   0.9216   0.01544   0.00774  -0.0415  0.1872  1.0000  -2.8977   0.0000   0.0000   0.0000   0.2884
   6.500   0.9277   0.01598   0.00810  -0.0407  0.1609  1.0000  -2.9545   0.0000   0.0000   0.0000   0.2872
   6.600   0.9338   0.01653   0.00849  -0.0399  0.1397  1.0000  -3.0102   0.0000   0.0000   0.0000   0.2860
   6.700   0.9403   0.01704   0.00889  -0.0392  0.1233  1.0000  -3.0665   0.0000   0.0000   0.0000   0.2848
   6.800   0.9473   0.01751   0.00930  -0.0385  0.1107  1.0000  -3.1235   0.0000   0.0000   0.0000   0.2837
   6.900   0.9535   0.01804   0.00974  -0.0377  0.1011  1.0000  -3.1780   0.0000   0.0000   0.0000   0.2825
   7.000   0.9614   0.01841   0.01011  -0.0372  0.0931  1.0000  -3.2395   0.0000   0.0000   0.0000   0.2815
   7.100   0.9667   0.01902   0.01062  -0.0363  0.0868  1.0000  -3.2900   0.0000   0.0000   0.0000   0.2802
   7.200   0.9752   0.01935   0.01100  -0.0357  0.0819  1.0000  -3.3501   0.0000   0.0000   0.0000   0.2792
   7.300   0.9826   0.01975   0.01140  -0.0351  0.0775  1.0000  -3.4092   0.0000   0.0000   0.0000   0.2782
   7.400   0.9880   0.02037   0.01196  -0.0342  0.0737  1.0000  -3.4585   0.0000   0.0000   0.0000   0.2770
   7.500   0.9949   0.02087   0.01249  -0.0334  0.0708  1.0000  -3.5090   0.0000   0.0000   0.0000   0.2759
   7.600   1.0028   0.02126   0.01291  -0.0328  0.0679  1.0000  -3.5654   0.0000   0.0000   0.0000   0.2749
   7.700   1.0104   0.02167   0.01335  -0.0322  0.0653  1.0000  -3.6218   0.0000   0.0000   0.0000   0.2739
   7.800   1.0175   0.02213   0.01385  -0.0315  0.0629  1.0000  -3.6822   0.0000   0.0000   0.0000   0.2729
   7.900   1.0231   0.02282   0.01449  -0.0307  0.0605  1.0000  -3.7317   0.0000   0.0000   0.0000   0.2718
   8.000   1.0294   0.02353   0.01520  -0.0299  0.0585  1.0000  -3.7763   0.0000   0.0000   0.0000   0.2708
   8.100   1.0379   0.02383   0.01559  -0.0294  0.0564  1.0000  -3.8362   0.0000   0.0000   0.0000   0.2699
   8.200   1.0459   0.02419   0.01599  -0.0289  0.0541  1.0000  -3.9065   0.0000   0.0000   0.0000   0.2690
   8.300   1.0536   0.02456   0.01637  -0.0283  0.0520  1.0000  -3.9887   0.0000   0.0000   0.0000   0.2682
   8.400   1.0606   0.02501   0.01681  -0.0277  0.0503  1.0000  -4.0696   0.0000   0.0000   0.0000   0.2673
   8.500   1.0671   0.02568   0.01746  -0.0271  0.0488  1.0000  -4.1413   0.0000   0.0000   0.0000   0.2665
   8.600   1.0735   0.02699   0.01873  -0.0265  0.0472  1.0000  -4.1927   0.0000   0.0000   0.0000   0.2656
   8.700   1.0818   0.02739   0.01922  -0.0259  0.0464  1.0000  -4.2692   0.0000   0.0000   0.0000   0.2648
   8.800   1.0899   0.02789   0.01980  -0.0253  0.0455  1.0000  -4.3429   0.0000   0.0000   0.0000   0.2640
   8.900   1.0980   0.02845   0.02044  -0.0248  0.0445  1.0000  -4.4147   0.0000   0.0000   0.0000   0.2632
   9.000   1.1059   0.02906   0.02112  -0.0242  0.0435  1.0000  -4.4856   0.0000   0.0000   0.0000   0.2624
   9.100   1.1136   0.02970   0.02182  -0.0236  0.0426  1.0000  -4.5559   0.0000   0.0000   0.0000   0.2616
   9.200   1.1212   0.03035   0.02254  -0.0231  0.0416  1.0000  -4.6257   0.0000   0.0000   0.0000   0.2608
   9.300   1.1285   0.03101   0.02326  -0.0225  0.0408  1.0000  -4.6955   0.0000   0.0000   0.0000   0.2600
   9.400   1.1355   0.03169   0.02399  -0.0219  0.0400  1.0000  -4.7656   0.0000   0.0000   0.0000   0.2593
   9.500   1.1424   0.03241   0.02475  -0.0213  0.0393  1.0000  -4.8356   0.0000   0.0000   0.0000   0.2585
   9.600   1.1492   0.03321   0.02559  -0.0208  0.0386  1.0000  -4.9043   0.0000   0.0000   0.0000   0.2578
   9.700   1.1560   0.03418   0.02660  -0.0203  0.0379  1.0000  -4.9685   0.0000   0.0000   0.0000   0.2572
   9.800   1.1624   0.03545   0.02794  -0.0198  0.0374  1.0000  -5.0208   0.0000   0.0000   0.0000   0.2565
   9.900   1.1678   0.03714   0.02974  -0.0193  0.0369  1.0000  -5.0529   0.0000   0.0000   0.0000   0.2559
  10.000   1.1714   0.03912   0.03188  -0.0186  0.0365  1.0000  -5.0649   0.0000   0.0000   0.0000   0.2552
  10.100   1.1745   0.04042   0.03335  -0.0177  0.0363  1.0000  -5.0961   0.0000   0.0000   0.0000   0.2542
  10.200   1.1774   0.04128   0.03435  -0.0167  0.0361  1.0000  -5.1363   0.0000   0.0000   0.0000   0.2532
  10.300   1.1796   0.04210   0.03530  -0.0156  0.0359  1.0000  -5.1741   0.0000   0.0000   0.0000   0.2522
  10.400   1.1812   0.04291   0.03625  -0.0145  0.0356  1.0000  -5.2092   0.0000   0.0000   0.0000   0.2511
  10.500   1.1821   0.04374   0.03722  -0.0134  0.0353  1.0000  -5.2412   0.0000   0.0000   0.0000   0.2500
  10.600   1.1822   0.04459   0.03820  -0.0122  0.0349  1.0000  -5.2695   0.0000   0.0000   0.0000   0.2489
  10.700   1.1809   0.04543   0.03916  -0.0108  0.0346  1.0000  -5.2924   0.0000   0.0000   0.0000   0.2476
  10.800   1.1790   0.04630   0.04015  -0.0095  0.0342  1.0000  -5.3126   0.0000   0.0000   0.0000   0.2463
  10.900   1.1766   0.04722   0.04118  -0.0082  0.0338  1.0000  -5.3307   0.0000   0.0000   0.0000   0.2451
  11.000   1.1739   0.04819   0.04225  -0.0069  0.0334  1.0000  -5.3471   0.0000   0.0000   0.0000   0.2439
  11.100   1.1708   0.04920   0.04337  -0.0058  0.0331  1.0000  -5.3616   0.0000   0.0000   0.0000   0.2428
  11.200   1.1674   0.05026   0.04454  -0.0048  0.0327  1.0000  -5.3740   0.0000   0.0000   0.0000   0.2418
  11.300   1.1636   0.05140   0.04577  -0.0038  0.0324  1.0000  -5.3839   0.0000   0.0000   0.0000   0.2409
  11.400   1.1594   0.05260   0.04707  -0.0030  0.0322  1.0000  -5.3903   0.0000   0.0000   0.0000   0.2401
  11.500   1.1548   0.05389   0.04846  -0.0023  0.0320  1.0000  -5.3922   0.0000   0.0000   0.0000   0.2393
  11.600   1.1495   0.05530   0.04996  -0.0017  0.0318  1.0000  -5.3885   0.0000   0.0000   0.0000   0.2387
  11.700   1.1435   0.05682   0.05159  -0.0013  0.0317  1.0000  -5.3780   0.0000   0.0000   0.0000   0.2381
  11.800   1.1369   0.05847   0.05334  -0.0010  0.0317  1.0000  -5.3609   0.0000   0.0000   0.0000   0.2377
  11.900   1.1298   0.06023   0.05521  -0.0009  0.0317  1.0000  -5.3398   0.0000   0.0000   0.0000   0.2375
  12.000   1.1223   0.06211   0.05718  -0.0009  0.0317  1.0000  -5.3150   0.0000   0.0000   0.0000   0.2374
  12.100   1.1144   0.06410   0.05927  -0.0012  0.0317  1.0000  -5.2861   0.0000   0.0000   0.0000   0.2375
  12.200   1.1060   0.06621   0.06147  -0.0016  0.0317  1.0000  -5.2529   0.0000   0.0000   0.0000   0.2377
  12.300   1.0972   0.06846   0.06383  -0.0023  0.0318  1.0000  -5.2153   0.0000   0.0000   0.0000   0.2382
  12.400   1.0880   0.07088   0.06634  -0.0032  0.0319  1.0000  -5.1728   0.0000   0.0000   0.0000   0.2389
  12.500   1.0784   0.07347   0.06902  -0.0044  0.0319  1.0000  -5.1253   0.0000   0.0000   0.0000   0.2398
  12.600   1.0684   0.07625   0.07188  -0.0057  0.0320  1.0000  -5.0722   0.0000   0.0000   0.0000   0.2410
  12.700   1.0578   0.07919   0.07492  -0.0074  0.0322  1.0000  -5.0133   0.0000   0.0000   0.0000   0.2424
  12.800   1.0467   0.08235   0.07815  -0.0092  0.0323  1.0000  -4.9480   0.0000   0.0000   0.0000   0.2441
  12.900   1.0352   0.08574   0.08162  -0.0113  0.0325  1.0000  -4.8756   0.0000   0.0000   0.0000   0.2460
  13.000   1.0232   0.08939   0.08535  -0.0137  0.0327  1.0000  -4.7950   0.0000   0.0000   0.0000   0.2483
  13.100   1.0107   0.09333   0.08936  -0.0163  0.0330  1.0000  -4.7050   0.0000   0.0000   0.0000   0.2510
  13.200   0.9974   0.09762   0.09371  -0.0192  0.0333  1.0000  -4.6018   0.0000   0.0000   0.0000   0.2540
  13.300   0.9835   0.10225   0.09840  -0.0222  0.0337  1.0000  -4.4852   0.0000   0.0000   0.0000   0.2573
  13.400   0.9697   0.10707   0.10326  -0.0254  0.0342  1.0000  -4.3608   0.0000   0.0000   0.0000   0.2608
  13.500   0.9566   0.11186   0.10804  -0.0283  0.0348  1.0000  -4.2332   0.0000   0.0000   0.0000   0.2642
  13.600   0.9447   0.11650   0.11271  -0.0310  0.0352  1.0000  -4.1145   0.0000   0.0000   0.0000   0.2674
  13.700   0.9340   0.12096   0.11717  -0.0334  0.0356  1.0000  -4.0021   0.0000   0.0000   0.0000   0.2703
  13.800   0.9248   0.12516   0.12138  -0.0355  0.0359  1.0000  -3.8984   0.0000   0.0000   0.0000   0.2729
  13.900   0.9171   0.12904   0.12526  -0.0373  0.0362  1.0000  -3.8068   0.0000   0.0000   0.0000   0.2751
  14.000   0.9110   0.13253   0.12875  -0.0387  0.0364  1.0000  -3.7303   0.0000   0.0000   0.0000   0.2769
  14.200   0.8377   0.16899   0.16519  -0.0585  0.0667  1.0000  -2.1462   0.0000   0.0000   0.0000   0.3061
  14.300   0.8396   0.17038   0.16658  -0.0591  0.0648  1.0000  -2.1570   0.0000   0.0000   0.0000   0.3065
  14.400   0.8446   0.17092   0.16713  -0.0587  0.0630  1.0000  -2.2109   0.0000   0.0000   0.0000   0.3055
  14.500   0.8510   0.17117   0.16739  -0.0579  0.0617  1.0000  -2.2833   0.0000   0.0000   0.0000   0.3038
  14.600   0.8555   0.17211   0.16834  -0.0575  0.0611  1.0000  -2.3241   0.0000   0.0000   0.0000   0.3029
  14.700   0.8611   0.17283   0.16907  -0.0567  0.0606  1.0000  -2.3812   0.0000   0.0000   0.0000   0.3013
  14.800   0.8671   0.17363   0.16988  -0.0554  0.0600  1.0000  -2.4492   0.0000   0.0000   0.0000   0.2991
  14.900   0.3375   0.05023   0.04717   0.0022  0.0866  1.0000  -0.9014   0.0000   0.0000   0.0000   0.2437
  15.000   0.3325   0.05123   0.04816   0.0003  0.0859  1.0000  -0.8430   0.0000   0.0000   0.0000   0.2494


