xflr5 v6.55

 Calculated polar for: NACA 2410

 1 1 Reynolds number fixed          Mach number fixed         

 xtrf =   1.000 (top)        1.000 (bottom)
 Mach =   0.200     Re =     0.100 e 6     Ncrit =   9.000

  alpha     CL        CD       CDp       Cm    Top Xtr Bot Xtr   Cpmin    Chinge    XCp    
 ------- -------- --------- --------- -------- ------- ------- -------- --------- ---------
   0.000   0.1863   0.01583   0.00872  -0.0533  0.9298  1.0000  -0.4622   0.0000   0.0000   0.0000   0.5357
   0.100   0.2097   0.01581   0.00868  -0.0557  0.9264  1.0000  -0.4773   0.0000   0.0000   0.0000   0.5147
   0.200   0.2350   0.01577   0.00862  -0.0583  0.9239  1.0000  -0.4939   0.0000   0.0000   0.0000   0.4973
   0.300   0.2430   0.01583   0.00865  -0.0577  0.9149  1.0000  -0.5010   0.0000   0.0000   0.0000   0.4865
   0.400   0.2619   0.01579   0.00860  -0.0591  0.9096  1.0000  -0.5146   0.0000   0.0000   0.0000   0.4746
   0.500   0.2829   0.01572   0.00851  -0.0609  0.9057  1.0000  -0.5296   0.0000   0.0000   0.0000   0.4639
   0.600   0.3052   0.01563   0.00841  -0.0628  0.9025  1.0000  -0.5462   0.0000   0.0000   0.0000   0.4544
   0.700   0.3171   0.01565   0.00841  -0.0628  0.8954  1.0000  -0.5566   0.0000   0.0000   0.0000   0.4467
   0.800   0.3302   0.01564   0.00839  -0.0631  0.8882  1.0000  -0.5678   0.0000   0.0000   0.0000   0.4394
   0.900   0.3483   0.01554   0.00829  -0.0641  0.8832  1.0000  -0.5829   0.0000   0.0000   0.0000   0.4324
   1.000   0.3681   0.01542   0.00815  -0.0654  0.8793  1.0000  -0.5996   0.0000   0.0000   0.0000   0.4260
   1.100   0.3832   0.01537   0.00810  -0.0659  0.8739  1.0000  -0.6133   0.0000   0.0000   0.0000   0.4201
   1.200   0.3916   0.01542   0.00814  -0.0652  0.8649  1.0000  -0.6234   0.0000   0.0000   0.0000   0.4147
   1.300   0.4069   0.01533   0.00805  -0.0657  0.8591  1.0000  -0.6384   0.0000   0.0000   0.0000   0.4094
   1.400   0.4240   0.01520   0.00791  -0.0664  0.8545  1.0000  -0.6556   0.0000   0.0000   0.0000   0.4045
   1.500   0.4385   0.01513   0.00783  -0.0666  0.8490  1.0000  -0.6714   0.0000   0.0000   0.0000   0.3998
   1.600   0.4460   0.01521   0.00791  -0.0658  0.8395  1.0000  -0.6827   0.0000   0.0000   0.0000   0.3953
   1.700   0.4591   0.01514   0.00783  -0.0658  0.8331  1.0000  -0.6990   0.0000   0.0000   0.0000   0.3910
   1.800   0.4744   0.01502   0.00770  -0.0661  0.8281  1.0000  -0.7187   0.0000   0.0000   0.0000   0.3869
   1.900   0.4863   0.01501   0.00768  -0.0659  0.8215  1.0000  -0.7367   0.0000   0.0000   0.0000   0.3830
   2.000   0.4945   0.01507   0.00779  -0.0651  0.8123  1.0000  -0.7525   0.0000   0.0000   0.0000   0.3792
   2.100   0.5069   0.01502   0.00772  -0.0649  0.8056  1.0000  -0.7740   0.0000   0.0000   0.0000   0.3756
   2.200   0.5208   0.01492   0.00761  -0.0649  0.8002  1.0000  -0.7995   0.0000   0.0000   0.0000   0.3721
   2.300   0.5305   0.01498   0.00767  -0.0644  0.7924  1.0000  -0.8220   0.0000   0.0000   0.0000   0.3687
   2.400   0.5398   0.01503   0.00772  -0.0638  0.7837  1.0000  -0.8449   0.0000   0.0000   0.0000   0.3655
   2.500   0.5518   0.01499   0.00766  -0.0636  0.7768  1.0000  -0.8738   0.0000   0.0000   0.0000   0.3623
   2.600   0.5649   0.01493   0.00756  -0.0634  0.7712  1.0000  -0.9062   0.0000   0.0000   0.0000   0.3593
   2.700   0.5733   0.01505   0.00769  -0.0627  0.7624  1.0000  -0.9314   0.0000   0.0000   0.0000   0.3564
   2.800   0.5833   0.01509   0.00773  -0.0622  0.7540  1.0000  -0.9621   0.0000   0.0000   0.0000   0.3536
   2.900   0.5950   0.01506   0.00768  -0.0619  0.7471  1.0000  -0.9980   0.0000   0.0000   0.0000   0.3509
   3.000   0.6074   0.01505   0.00762  -0.0616  0.7411  1.0000  -1.0352   0.0000   0.0000   0.0000   0.3482
   3.100   0.6153   0.01519   0.00780  -0.0610  0.7314  1.0000  -1.0643   0.0000   0.0000   0.0000   0.3458
   3.200   0.6258   0.01523   0.00783  -0.0605  0.7232  1.0000  -1.0986   0.0000   0.0000   0.0000   0.3433
   3.300   0.6374   0.01522   0.00778  -0.0601  0.7164  1.0000  -1.1419   0.0000   0.0000   0.0000   0.3409
   3.400   0.6477   0.01530   0.00785  -0.0597  0.7087  1.0000  -1.1824   0.0000   0.0000   0.0000   0.3386
   3.500   0.6569   0.01540   0.00798  -0.0591  0.6994  1.0000  -1.2207   0.0000   0.0000   0.0000   0.3364
   3.600   0.6677   0.01542   0.00798  -0.0587  0.6913  1.0000  -1.2632   0.0000   0.0000   0.0000   0.3342
   3.700   0.6795   0.01544   0.00794  -0.0583  0.6845  1.0000  -1.3087   0.0000   0.0000   0.0000   0.3320
   3.800   0.6881   0.01557   0.00818  -0.0577  0.6749  1.0000  -1.3474   0.0000   0.0000   0.0000   0.3300
   3.900   0.6981   0.01563   0.00824  -0.0572  0.6657  1.0000  -1.3893   0.0000   0.0000   0.0000   0.3280
   4.000   0.7092   0.01565   0.00821  -0.0567  0.6578  1.0000  -1.4375   0.0000   0.0000   0.0000   0.3259
   4.100   0.7190   0.01576   0.00832  -0.0562  0.6489  1.0000  -1.4874   0.0000   0.0000   0.0000   0.3240
   4.200   0.7284   0.01584   0.00841  -0.0556  0.6387  1.0000  -1.5367   0.0000   0.0000   0.0000   0.3222
   4.300   0.7390   0.01587   0.00840  -0.0551  0.6298  1.0000  -1.5907   0.0000   0.0000   0.0000   0.3202
   4.400   0.7491   0.01596   0.00847  -0.0546  0.6205  1.0000  -1.6434   0.0000   0.0000   0.0000   0.3184
   4.500   0.7582   0.01604   0.00858  -0.0539  0.6096  1.0000  -1.6937   0.0000   0.0000   0.0000   0.3167
   4.600   0.7686   0.01608   0.00856  -0.0534  0.5998  1.0000  -1.7488   0.0000   0.0000   0.0000   0.3149
   4.700   0.7783   0.01618   0.00865  -0.0528  0.5896  1.0000  -1.8019   0.0000   0.0000   0.0000   0.3132
   4.800   0.7875   0.01624   0.00874  -0.0522  0.5780  1.0000  -1.8541   0.0000   0.0000   0.0000   0.3115
   4.900   0.7978   0.01630   0.00871  -0.0516  0.5679  1.0000  -1.9111   0.0000   0.0000   0.0000   0.3098
   5.000   0.8066   0.01640   0.00885  -0.0509  0.5559  1.0000  -1.9627   0.0000   0.0000   0.0000   0.3082
   5.100   0.8160   0.01646   0.00890  -0.0503  0.5441  1.0000  -2.0173   0.0000   0.0000   0.0000   0.3066
   5.200   0.8257   0.01657   0.00894  -0.0497  0.5329  1.0000  -2.0750   0.0000   0.0000   0.0000   0.3050
   5.300   0.8343   0.01664   0.00906  -0.0490  0.5195  1.0000  -2.1383   0.0000   0.0000   0.0000   0.3034
   5.500   0.8522   0.01683   0.00921  -0.0476  0.4932  1.0000  -2.2700   0.0000   0.0000   0.0000   0.3004
   5.600   0.8613   0.01694   0.00922  -0.0469  0.4801  1.0000  -2.3380   0.0000   0.0000   0.0000   0.2988
   5.700   0.8696   0.01703   0.00946  -0.0462  0.4645  1.0000  -2.3949   0.0000   0.0000   0.0000   0.2974
   5.800   0.8781   0.01717   0.00948  -0.0454  0.4498  1.0000  -2.4606   0.0000   0.0000   0.0000   0.2959
   5.900   0.8860   0.01727   0.00964  -0.0446  0.4316  1.0000  -2.5234   0.0000   0.0000   0.0000   0.2944
   6.000   0.8939   0.01742   0.00975  -0.0438  0.4135  1.0000  -2.5873   0.0000   0.0000   0.0000   0.2930
   6.100   0.9012   0.01759   0.00983  -0.0429  0.3936  1.0000  -2.6502   0.0000   0.0000   0.0000   0.2915
   6.200   0.9081   0.01778   0.00997  -0.0420  0.3698  1.0000  -2.7112   0.0000   0.0000   0.0000   0.2900
   6.300   0.9144   0.01803   0.01013  -0.0410  0.3431  1.0000  -2.7699   0.0000   0.0000   0.0000   0.2884
   6.400   0.9200   0.01838   0.01034  -0.0399  0.3127  1.0000  -2.8251   0.0000   0.0000   0.0000   0.2869
   6.500   0.9250   0.01884   0.01063  -0.0388  0.2782  1.0000  -2.8761   0.0000   0.0000   0.0000   0.2854
   6.600   0.9287   0.01947   0.01100  -0.0376  0.2449  1.0000  -2.9212   0.0000   0.0000   0.0000   0.2838
   6.700   0.9325   0.02018   0.01148  -0.0365  0.2142  1.0000  -2.9636   0.0000   0.0000   0.0000   0.2823
   6.800   0.9367   0.02090   0.01201  -0.0354  0.1893  1.0000  -3.0054   0.0000   0.0000   0.0000   0.2809
   6.900   0.9412   0.02162   0.01255  -0.0344  0.1704  1.0000  -3.0480   0.0000   0.0000   0.0000   0.2795
   7.100   0.9524   0.02294   0.01368  -0.0326  0.1441  1.0000  -3.1362   0.0000   0.0000   0.0000   0.2770
   7.200   0.9577   0.02371   0.01431  -0.0317  0.1355  1.0000  -3.1781   0.0000   0.0000   0.0000   0.2757
   7.300   0.9651   0.02428   0.01490  -0.0309  0.1273  1.0000  -3.2238   0.0000   0.0000   0.0000   0.2746
   7.400   0.9712   0.02503   0.01552  -0.0302  0.1209  1.0000  -3.2709   0.0000   0.0000   0.0000   0.2735
   7.500   0.9792   0.02565   0.01618  -0.0295  0.1145  1.0000  -3.3161   0.0000   0.0000   0.0000   0.2724
   7.600   0.9866   0.02618   0.01669  -0.0289  0.1084  1.0000  -3.3677   0.0000   0.0000   0.0000   0.2715
   7.700   0.9934   0.02707   0.01741  -0.0284  0.1031  1.0000  -3.4201   0.0000   0.0000   0.0000   0.2707
   7.800   1.0016   0.02756   0.01801  -0.0278  0.0985  1.0000  -3.4666   0.0000   0.0000   0.0000   0.2697
   7.900   1.0101   0.02816   0.01866  -0.0272  0.0945  1.0000  -3.5142   0.0000   0.0000   0.0000   0.2688
   8.000   1.0186   0.02883   0.01936  -0.0268  0.0912  1.0000  -3.5679   0.0000   0.0000   0.0000   0.2680
   8.100   1.0279   0.02984   0.02026  -0.0265  0.0881  1.0000  -3.6195   0.0000   0.0000   0.0000   0.2674
   8.200   1.0378   0.03084   0.02132  -0.0262  0.0857  1.0000  -3.6581   0.0000   0.0000   0.0000   0.2668
   8.300   1.0471   0.03157   0.02218  -0.0257  0.0835  1.0000  -3.7034   0.0000   0.0000   0.0000   0.2659
   8.400   1.0564   0.03238   0.02308  -0.0252  0.0813  1.0000  -3.7636   0.0000   0.0000   0.0000   0.2652
   8.500   1.0655   0.03323   0.02401  -0.0248  0.0793  1.0000  -3.8245   0.0000   0.0000   0.0000   0.2644
   8.600   1.0742   0.03404   0.02486  -0.0243  0.0773  1.0000  -3.8892   0.0000   0.0000   0.0000   0.2637
   8.700   1.0827   0.03487   0.02567  -0.0240  0.0752  1.0000  -3.9620   0.0000   0.0000   0.0000   0.2631
   8.800   1.0925   0.03677   0.02748  -0.0242  0.0726  1.0000  -4.0281   0.0000   0.0000   0.0000   0.2630
   8.900   1.0975   0.03716   0.02807  -0.0231  0.0710  1.0000  -4.0765   0.0000   0.0000   0.0000   0.2618
   9.000   1.1030   0.03778   0.02887  -0.0223  0.0690  1.0000  -4.1264   0.0000   0.0000   0.0000   0.2608
   9.100   1.1089   0.03852   0.02975  -0.0215  0.0671  1.0000  -4.1797   0.0000   0.0000   0.0000   0.2599
   9.200   1.1153   0.03941   0.03074  -0.0208  0.0656  1.0000  -4.2322   0.0000   0.0000   0.0000   0.2591
   9.300   1.1217   0.04041   0.03185  -0.0202  0.0645  1.0000  -4.2816   0.0000   0.0000   0.0000   0.2583
   9.400   1.1277   0.04144   0.03298  -0.0196  0.0635  1.0000  -4.3303   0.0000   0.0000   0.0000   0.2575
   9.500   1.1331   0.04251   0.03414  -0.0189  0.0626  1.0000  -4.3770   0.0000   0.0000   0.0000   0.2568
   9.600   1.1383   0.04364   0.03535  -0.0183  0.0618  1.0000  -4.4230   0.0000   0.0000   0.0000   0.2560
   9.700   1.1434   0.04491   0.03669  -0.0177  0.0611  1.0000  -4.4672   0.0000   0.0000   0.0000   0.2553
   9.800   1.1477   0.04638   0.03825  -0.0171  0.0605  1.0000  -4.5041   0.0000   0.0000   0.0000   0.2546
   9.900   1.1508   0.04810   0.04007  -0.0164  0.0600  1.0000  -4.5290   0.0000   0.0000   0.0000   0.2539
  10.000   1.1524   0.05000   0.04210  -0.0157  0.0596  1.0000  -4.5414   0.0000   0.0000   0.0000   0.2532
  10.100   1.1526   0.05196   0.04421  -0.0148  0.0593  1.0000  -4.5443   0.0000   0.0000   0.0000   0.2523
  10.200   1.1517   0.05354   0.04592  -0.0138  0.0592  1.0000  -4.5469   0.0000   0.0000   0.0000   0.2513
  10.300   1.1501   0.05488   0.04744  -0.0126  0.0591  1.0000  -4.5498   0.0000   0.0000   0.0000   0.2502
  10.400   1.1479   0.05629   0.04900  -0.0115  0.0590  1.0000  -4.5496   0.0000   0.0000   0.0000   0.2492
  10.500   1.1450   0.05774   0.05060  -0.0104  0.0589  1.0000  -4.5466   0.0000   0.0000   0.0000   0.2481
  10.600   1.1415   0.05923   0.05223  -0.0093  0.0589  1.0000  -4.5410   0.0000   0.0000   0.0000   0.2471
  10.700   1.1373   0.06075   0.05388  -0.0082  0.0589  1.0000  -4.5331   0.0000   0.0000   0.0000   0.2461
  10.800   1.1325   0.06227   0.05552  -0.0071  0.0589  1.0000  -4.5229   0.0000   0.0000   0.0000   0.2450
  10.900   1.1267   0.06377   0.05712  -0.0060  0.0590  1.0000  -4.5107   0.0000   0.0000   0.0000   0.2439
  11.000   1.1207   0.06533   0.05878  -0.0049  0.0590  1.0000  -4.4969   0.0000   0.0000   0.0000   0.2429
  11.100   1.1145   0.06697   0.06051  -0.0040  0.0591  1.0000  -4.4817   0.0000   0.0000   0.0000   0.2420
  11.200   1.1083   0.06871   0.06234  -0.0033  0.0592  1.0000  -4.4652   0.0000   0.0000   0.0000   0.2412
  11.400   1.0945   0.07162   0.06545  -0.0019  0.0594  1.0000  -4.4334   0.0000   0.0000   0.0000   0.2397
  11.500   1.0866   0.07297   0.06690  -0.0014  0.0595  1.0000  -4.4138   0.0000   0.0000   0.0000   0.2392
  11.600   1.0779   0.07441   0.06844  -0.0012  0.0597  1.0000  -4.3888   0.0000   0.0000   0.0000   0.2388
  11.700   1.0681   0.07600   0.07014  -0.0012  0.0599  1.0000  -4.3555   0.0000   0.0000   0.0000   0.2387
  11.800   1.0565   0.07785   0.07210  -0.0017  0.0602  1.0000  -4.3088   0.0000   0.0000   0.0000   0.2390
  11.900   1.0417   0.08017   0.07455  -0.0027  0.0606  1.0000  -4.2387   0.0000   0.0000   0.0000   0.2398
  12.000   1.0074   0.08493   0.07955  -0.0064  0.0618  1.0000  -4.0347   0.0000   0.0000   0.0000   0.2435
  12.100   0.9607   0.09375   0.08858  -0.0140  0.0641  1.0000  -3.7055   0.0000   0.0000   0.0000   0.2516
  12.200   0.9323   0.10132   0.09622  -0.0199  0.0658  1.0000  -3.4787   0.0000   0.0000   0.0000   0.2584
  12.300   0.9138   0.10764   0.10256  -0.0242  0.0673  1.0000  -3.3122   0.0000   0.0000   0.0000   0.2636
  12.400   0.9015   0.11286   0.10778  -0.0274  0.0684  1.0000  -3.1899   0.0000   0.0000   0.0000   0.2675
  12.500   0.8930   0.11724   0.11215  -0.0297  0.0694  1.0000  -3.0990   0.0000   0.0000   0.0000   0.2704
  12.600   0.8879   0.12070   0.11560  -0.0313  0.0701  1.0000  -3.0411   0.0000   0.0000   0.0000   0.2723
  12.700   0.8848   0.12356   0.11845  -0.0323  0.0707  1.0000  -3.0051   0.0000   0.0000   0.0000   0.2735
  12.800   0.8833   0.12597   0.12085  -0.0330  0.0712  1.0000  -2.9864   0.0000   0.0000   0.0000   0.2742
  12.900   0.8829   0.12806   0.12294  -0.0332  0.0717  1.0000  -2.9810   0.0000   0.0000   0.0000   0.2744
  13.000   0.8848   0.12958   0.12446  -0.0329  0.0722  1.0000  -3.0008   0.0000   0.0000   0.0000   0.2738
  13.200   0.8403   0.16056   0.15536  -0.0495  0.1368  1.0000  -2.0769   0.0000   0.0000   0.0000   0.2968
  13.300   0.8150   0.16219   0.15692  -0.0556  0.1326  1.0000  -1.9159   0.0000   0.0000   0.0000   0.3061
  13.400   0.8134   0.16396   0.15869  -0.0568  0.1306  1.0000  -1.8965   0.0000   0.0000   0.0000   0.3076
  13.500   0.8136   0.16565   0.16037  -0.0576  0.1289  1.0000  -1.8891   0.0000   0.0000   0.0000   0.3084
  13.600   0.8150   0.16726   0.16198  -0.0581  0.1273  1.0000  -1.8896   0.0000   0.0000   0.0000   0.3088
  13.700   0.8175   0.16883   0.16356  -0.0584  0.1258  1.0000  -1.8971   0.0000   0.0000   0.0000   0.3088
  13.800   0.8212   0.17039   0.16512  -0.0585  0.1245  1.0000  -1.9118   0.0000   0.0000   0.0000   0.3085
  13.900   0.8261   0.17194   0.16668  -0.0584  0.1234  1.0000  -1.9344   0.0000   0.0000   0.0000   0.3078
  14.000   0.8326   0.17355   0.16836  -0.0579  0.1223  1.0000  -1.9628   0.0000   0.0000   0.0000   0.3066
  14.100   0.8408   0.17531   0.17014  -0.0570  0.1214  1.0000  -2.0063   0.0000   0.0000   0.0000   0.3047
  14.200   0.8519   0.17755   0.17241  -0.0553  0.1206  1.0000  -2.0685   0.0000   0.0000   0.0000   0.3017
  14.300   0.8661   0.18175   0.17663  -0.0528  0.1196  1.0000  -2.1461   0.0000   0.0000   0.0000   0.2976
  14.400   0.8601   0.18342   0.17828  -0.0551  0.1194  1.0000  -2.0916   0.0000   0.0000   0.0000   0.3006
  14.500   0.8510   0.18474   0.17956  -0.0581  0.1190  1.0000  -2.0176   0.0000   0.0000   0.0000   0.3048
  14.600   0.8350   0.18526   0.18002  -0.0628  0.1175  1.0000  -1.8991   0.0000   0.0000   0.0000   0.3115
  14.700   0.8283   0.18622   0.18096  -0.0651  0.1150  1.0000  -1.8445   0.0000   0.0000   0.0000   0.3149
  14.800   0.8281   0.18770   0.18244  -0.0662  0.1130  1.0000  -1.8297   0.0000   0.0000   0.0000   0.3161
  14.900   0.8295   0.18922   0.18395  -0.0670  0.1114  1.0000  -1.8258   0.0000   0.0000   0.0000   0.3168
  15.000   0.8318   0.19073   0.18546  -0.0675  0.1099  1.0000  -1.8281   0.0000   0.0000   0.0000   0.3171


