xflr5 v6.55

 Calculated polar for: NACA 2410

 1 1 Reynolds number fixed          Mach number fixed         

 xtrf =   1.000 (top)        1.000 (bottom)
 Mach =   0.200     Re =     0.200 e 6     Ncrit =   9.000

  alpha     CL        CD       CDp       Cm    Top Xtr Bot Xtr   Cpmin    Chinge    XCp    
 ------- -------- --------- --------- -------- ------- ------- -------- --------- ---------
   0.000   0.2992   0.00926   0.00415  -0.0677  0.8805  1.0000  -0.5340   0.0000   0.0000   0.0000   0.4755
   0.100   0.3107   0.00921   0.00406  -0.0675  0.8750  1.0000  -0.5439   0.0000   0.0000   0.0000   0.4665
   0.200   0.3192   0.00921   0.00403  -0.0669  0.8666  1.0000  -0.5519   0.0000   0.0000   0.0000   0.4586
   0.300   0.3293   0.00917   0.00396  -0.0665  0.8595  1.0000  -0.5610   0.0000   0.0000   0.0000   0.4507
   0.400   0.3406   0.00912   0.00387  -0.0662  0.8537  1.0000  -0.5711   0.0000   0.0000   0.0000   0.4432
   0.500   0.3504   0.00912   0.00383  -0.0658  0.8464  1.0000  -0.5808   0.0000   0.0000   0.0000   0.4364
   0.600   0.3598   0.00912   0.00381  -0.0653  0.8381  1.0000  -0.5901   0.0000   0.0000   0.0000   0.4300
   0.700   0.3702   0.00909   0.00374  -0.0649  0.8310  1.0000  -0.6002   0.0000   0.0000   0.0000   0.4237
   0.900   0.3904   0.00910   0.00368  -0.0641  0.8160  1.0000  -0.6213   0.0000   0.0000   0.0000   0.4124
   1.000   0.4003   0.00911   0.00365  -0.0636  0.8079  1.0000  -0.6320   0.0000   0.0000   0.0000   0.4072
   1.100   0.4109   0.00911   0.00359  -0.0633  0.8009  1.0000  -0.6438   0.0000   0.0000   0.0000   0.4021
   1.200   0.4209   0.00913   0.00358  -0.0629  0.7931  1.0000  -0.6554   0.0000   0.0000   0.0000   0.3974
   1.300   0.4306   0.00915   0.00359  -0.0624  0.7842  1.0000  -0.6670   0.0000   0.0000   0.0000   0.3929
   1.400   0.4409   0.00917   0.00356  -0.0620  0.7764  1.0000  -0.6799   0.0000   0.0000   0.0000   0.3885
   1.500   0.4515   0.00921   0.00352  -0.0617  0.7695  1.0000  -0.6935   0.0000   0.0000   0.0000   0.3844
   1.600   0.4610   0.00924   0.00356  -0.0612  0.7603  1.0000  -0.7069   0.0000   0.0000   0.0000   0.3806
   1.700   0.4711   0.00928   0.00356  -0.0608  0.7517  1.0000  -0.7216   0.0000   0.0000   0.0000   0.3768
   1.800   0.4815   0.00932   0.00353  -0.0605  0.7443  1.0000  -0.7378   0.0000   0.0000   0.0000   0.3731
   1.900   0.4916   0.00937   0.00359  -0.0601  0.7362  1.0000  -0.7547   0.0000   0.0000   0.0000   0.3697
   2.000   0.5015   0.00941   0.00362  -0.0597  0.7273  1.0000  -0.7733   0.0000   0.0000   0.0000   0.3665
   2.100   0.5117   0.00947   0.00362  -0.0593  0.7192  1.0000  -0.7942   0.0000   0.0000   0.0000   0.3633
   2.200   0.5221   0.00954   0.00362  -0.0590  0.7118  1.0000  -0.8166   0.0000   0.0000   0.0000   0.3602
   2.300   0.5320   0.00958   0.00367  -0.0586  0.7030  1.0000  -0.8403   0.0000   0.0000   0.0000   0.3574
   2.400   0.5421   0.00964   0.00370  -0.0583  0.6945  1.0000  -0.8655   0.0000   0.0000   0.0000   0.3546
   2.500   0.5525   0.00972   0.00370  -0.0579  0.6868  1.0000  -0.8936   0.0000   0.0000   0.0000   0.3518
   2.600   0.5627   0.00979   0.00375  -0.0576  0.6789  1.0000  -0.9217   0.0000   0.0000   0.0000   0.3493
   2.700   0.5727   0.00984   0.00380  -0.0572  0.6702  1.0000  -0.9514   0.0000   0.0000   0.0000   0.3468
   2.800   0.5829   0.00991   0.00383  -0.0569  0.6620  1.0000  -0.9844   0.0000   0.0000   0.0000   0.3444
   3.000   0.6034   0.01007   0.00392  -0.0562  0.6461  1.0000  -1.0511   0.0000   0.0000   0.0000   0.3398
   3.100   0.6135   0.01014   0.00397  -0.0559  0.6375  1.0000  -1.0848   0.0000   0.0000   0.0000   0.3376
   3.200   0.6237   0.01023   0.00400  -0.0555  0.6295  1.0000  -1.1231   0.0000   0.0000   0.0000   0.3355
   3.300   0.6339   0.01032   0.00406  -0.0552  0.6217  1.0000  -1.1635   0.0000   0.0000   0.0000   0.3335
   3.400   0.6441   0.01038   0.00413  -0.0549  0.6128  1.0000  -1.2040   0.0000   0.0000   0.0000   0.3315
   3.500   0.6542   0.01046   0.00417  -0.0545  0.6041  1.0000  -1.2451   0.0000   0.0000   0.0000   0.3296
   3.600   0.6643   0.01058   0.00421  -0.0541  0.5960  1.0000  -1.2867   0.0000   0.0000   0.0000   0.3276
   3.700   0.6745   0.01064   0.00430  -0.0538  0.5871  1.0000  -1.3283   0.0000   0.0000   0.0000   0.3259
   3.800   0.6845   0.01071   0.00441  -0.0535  0.5777  1.0000  -1.3714   0.0000   0.0000   0.0000   0.3241
   3.900   0.6945   0.01083   0.00445  -0.0531  0.5690  1.0000  -1.4155   0.0000   0.0000   0.0000   0.3223
   4.000   0.7046   0.01091   0.00453  -0.0527  0.5600  1.0000  -1.4661   0.0000   0.0000   0.0000   0.3207
   4.100   0.7146   0.01098   0.00460  -0.0524  0.5502  1.0000  -1.5173   0.0000   0.0000   0.0000   0.3190
   4.200   0.7245   0.01109   0.00465  -0.0520  0.5409  1.0000  -1.5689   0.0000   0.0000   0.0000   0.3174
   4.300   0.7346   0.01119   0.00473  -0.0516  0.5317  1.0000  -1.6212   0.0000   0.0000   0.0000   0.3158
   4.400   0.7446   0.01127   0.00481  -0.0513  0.5215  1.0000  -1.6741   0.0000   0.0000   0.0000   0.3143
   4.500   0.7543   0.01139   0.00487  -0.0509  0.5117  1.0000  -1.7271   0.0000   0.0000   0.0000   0.3128
   4.600   0.7643   0.01148   0.00496  -0.0505  0.5020  1.0000  -1.7809   0.0000   0.0000   0.0000   0.3114
   4.700   0.7742   0.01157   0.00505  -0.0502  0.4911  1.0000  -1.8351   0.0000   0.0000   0.0000   0.3100
   4.800   0.7838   0.01171   0.00512  -0.0497  0.4809  1.0000  -1.8891   0.0000   0.0000   0.0000   0.3085
   4.900   0.7938   0.01180   0.00522  -0.0494  0.4701  1.0000  -1.9445   0.0000   0.0000   0.0000   0.3072
   5.000   0.8034   0.01191   0.00530  -0.0490  0.4582  1.0000  -1.9995   0.0000   0.0000   0.0000   0.3059
   5.100   0.8129   0.01205   0.00540  -0.0485  0.4471  1.0000  -2.0581   0.0000   0.0000   0.0000   0.3045
   5.200   0.8228   0.01215   0.00550  -0.0482  0.4342  1.0000  -2.1258   0.0000   0.0000   0.0000   0.3033
   5.300   0.8318   0.01232   0.00559  -0.0477  0.4215  1.0000  -2.1921   0.0000   0.0000   0.0000   0.3019
   5.400   0.8417   0.01241   0.00571  -0.0473  0.4071  1.0000  -2.2611   0.0000   0.0000   0.0000   0.3007
   5.500   0.8506   0.01259   0.00581  -0.0468  0.3925  1.0000  -2.3281   0.0000   0.0000   0.0000   0.2995
   5.600   0.8600   0.01273   0.00598  -0.0464  0.3756  1.0000  -2.3922   0.0000   0.0000   0.0000   0.2983
   5.700   0.8690   0.01291   0.00611  -0.0459  0.3578  1.0000  -2.4573   0.0000   0.0000   0.0000   0.2970
   5.800   0.8773   0.01313   0.00624  -0.0454  0.3377  1.0000  -2.5228   0.0000   0.0000   0.0000   0.2958
   5.900   0.8853   0.01339   0.00639  -0.0448  0.3149  1.0000  -2.5882   0.0000   0.0000   0.0000   0.2946
   6.000   0.8932   0.01368   0.00657  -0.0442  0.2902  1.0000  -2.6532   0.0000   0.0000   0.0000   0.2933
   6.100   0.9009   0.01400   0.00678  -0.0436  0.2637  1.0000  -2.7178   0.0000   0.0000   0.0000   0.2921
   6.200   0.9083   0.01437   0.00701  -0.0430  0.2360  1.0000  -2.7814   0.0000   0.0000   0.0000   0.2910
   6.300   0.9153   0.01479   0.00729  -0.0423  0.2072  1.0000  -2.8431   0.0000   0.0000   0.0000   0.2898
   6.400   0.9216   0.01529   0.00761  -0.0416  0.1791  1.0000  -2.9020   0.0000   0.0000   0.0000   0.2886
   6.500   0.9280   0.01581   0.00796  -0.0409  0.1541  1.0000  -2.9599   0.0000   0.0000   0.0000   0.2874
   6.600   0.9346   0.01632   0.00834  -0.0402  0.1338  1.0000  -3.0174   0.0000   0.0000   0.0000   0.2862
   6.700   0.9409   0.01685   0.00875  -0.0394  0.1183  1.0000  -3.0736   0.0000   0.0000   0.0000   0.2850
   6.800   0.9481   0.01729   0.00913  -0.0388  0.1063  1.0000  -3.1330   0.0000   0.0000   0.0000   0.2839
   6.900   0.9554   0.01772   0.00953  -0.0381  0.0970  1.0000  -3.1915   0.0000   0.0000   0.0000   0.2828
   7.000   0.9622   0.01819   0.00993  -0.0374  0.0896  1.0000  -3.2501   0.0000   0.0000   0.0000   0.2817
   7.100   0.9693   0.01865   0.01038  -0.0367  0.0839  1.0000  -3.3054   0.0000   0.0000   0.0000   0.2806
   7.200   0.9772   0.01901   0.01076  -0.0361  0.0790  1.0000  -3.3659   0.0000   0.0000   0.0000   0.2796
   7.300   0.9836   0.01952   0.01122  -0.0354  0.0748  1.0000  -3.4212   0.0000   0.0000   0.0000   0.2784
   7.400   0.9895   0.02010   0.01179  -0.0345  0.0714  1.0000  -3.4691   0.0000   0.0000   0.0000   0.2772
   7.500   0.9977   0.02045   0.01219  -0.0339  0.0684  1.0000  -3.5275   0.0000   0.0000   0.0000   0.2762
   7.600   1.0054   0.02085   0.01260  -0.0333  0.0655  1.0000  -3.5854   0.0000   0.0000   0.0000   0.2752
   7.700   1.0125   0.02128   0.01303  -0.0326  0.0630  1.0000  -3.6432   0.0000   0.0000   0.0000   0.2742
   7.800   1.0180   0.02193   0.01369  -0.0318  0.0606  1.0000  -3.6959   0.0000   0.0000   0.0000   0.2731
   7.900   1.0240   0.02261   0.01437  -0.0309  0.0585  1.0000  -3.7411   0.0000   0.0000   0.0000   0.2720
   8.000   1.0326   0.02291   0.01474  -0.0304  0.0564  1.0000  -3.8022   0.0000   0.0000   0.0000   0.2711
   8.100   1.0406   0.02326   0.01513  -0.0299  0.0541  1.0000  -3.8639   0.0000   0.0000   0.0000   0.2703
   8.200   1.0483   0.02361   0.01549  -0.0293  0.0519  1.0000  -3.9396   0.0000   0.0000   0.0000   0.2694
   8.300   1.0553   0.02405   0.01591  -0.0287  0.0501  1.0000  -4.0210   0.0000   0.0000   0.0000   0.2685
   8.400   1.0612   0.02476   0.01660  -0.0280  0.0484  1.0000  -4.0894   0.0000   0.0000   0.0000   0.2676
   8.500   1.0672   0.02580   0.01764  -0.0273  0.0470  1.0000  -4.1439   0.0000   0.0000   0.0000   0.2666
   8.600   1.0755   0.02620   0.01811  -0.0267  0.0461  1.0000  -4.2215   0.0000   0.0000   0.0000   0.2658
   8.700   1.0836   0.02668   0.01866  -0.0261  0.0451  1.0000  -4.2965   0.0000   0.0000   0.0000   0.2650
   8.800   1.0915   0.02722   0.01926  -0.0256  0.0441  1.0000  -4.3703   0.0000   0.0000   0.0000   0.2641
   8.900   1.0993   0.02778   0.01988  -0.0250  0.0430  1.0000  -4.4433   0.0000   0.0000   0.0000   0.2633
   9.000   1.1069   0.02836   0.02051  -0.0244  0.0420  1.0000  -4.5164   0.0000   0.0000   0.0000   0.2625
   9.100   1.1144   0.02895   0.02115  -0.0238  0.0411  1.0000  -4.5901   0.0000   0.0000   0.0000   0.2617
   9.200   1.1217   0.02955   0.02179  -0.0232  0.0402  1.0000  -4.6643   0.0000   0.0000   0.0000   0.2610
   9.300   1.1288   0.03018   0.02245  -0.0227  0.0394  1.0000  -4.7387   0.0000   0.0000   0.0000   0.2602
   9.400   1.1358   0.03089   0.02319  -0.0221  0.0386  1.0000  -4.8120   0.0000   0.0000   0.0000   0.2595
   9.500   1.1429   0.03181   0.02414  -0.0216  0.0378  1.0000  -4.8800   0.0000   0.0000   0.0000   0.2588
   9.600   1.1500   0.03321   0.02559  -0.0212  0.0371  1.0000  -4.9315   0.0000   0.0000   0.0000   0.2582
   9.700   1.1558   0.03534   0.02785  -0.0208  0.0364  1.0000  -4.9490   0.0000   0.0000   0.0000   0.2576
   9.800   1.1613   0.03604   0.02867  -0.0200  0.0361  1.0000  -5.0036   0.0000   0.0000   0.0000   0.2567
   9.900   1.1665   0.03685   0.02961  -0.0192  0.0359  1.0000  -5.0531   0.0000   0.0000   0.0000   0.2558
  10.000   1.1711   0.03776   0.03064  -0.0183  0.0356  1.0000  -5.0976   0.0000   0.0000   0.0000   0.2549
  10.100   1.1752   0.03867   0.03173  -0.0174  0.0354  1.0000  -5.1442   0.0000   0.0000   0.0000   0.2540
  10.200   1.1785   0.03957   0.03276  -0.0165  0.0351  1.0000  -5.1853   0.0000   0.0000   0.0000   0.2530
  10.300   1.1812   0.04046   0.03378  -0.0155  0.0347  1.0000  -5.2241   0.0000   0.0000   0.0000   0.2520
  10.400   1.1832   0.04134   0.03478  -0.0144  0.0343  1.0000  -5.2611   0.0000   0.0000   0.0000   0.2510
  10.500   1.1846   0.04221   0.03578  -0.0134  0.0338  1.0000  -5.2968   0.0000   0.0000   0.0000   0.2499
  10.600   1.1849   0.04305   0.03673  -0.0122  0.0333  1.0000  -5.3300   0.0000   0.0000   0.0000   0.2488
  10.700   1.1845   0.04387   0.03766  -0.0109  0.0329  1.0000  -5.3620   0.0000   0.0000   0.0000   0.2476
  10.800   1.1838   0.04469   0.03857  -0.0097  0.0324  1.0000  -5.3945   0.0000   0.0000   0.0000   0.2464
  10.900   1.1830   0.04552   0.03949  -0.0085  0.0319  1.0000  -5.4276   0.0000   0.0000   0.0000   0.2453
  11.000   1.1819   0.04637   0.04042  -0.0074  0.0315  1.0000  -5.4614   0.0000   0.0000   0.0000   0.2443
  11.100   1.1808   0.04724   0.04137  -0.0064  0.0311  1.0000  -5.4946   0.0000   0.0000   0.0000   0.2433
  11.200   1.1793   0.04817   0.04237  -0.0055  0.0307  1.0000  -5.5252   0.0000   0.0000   0.0000   0.2423
  11.300   1.1773   0.04918   0.04346  -0.0046  0.0305  1.0000  -5.5499   0.0000   0.0000   0.0000   0.2414
  11.400   1.1743   0.05034   0.04471  -0.0037  0.0303  1.0000  -5.5638   0.0000   0.0000   0.0000   0.2406
  11.500   1.1705   0.05160   0.04607  -0.0029  0.0302  1.0000  -5.5698   0.0000   0.0000   0.0000   0.2397
  11.600   1.1663   0.05293   0.04748  -0.0022  0.0301  1.0000  -5.5729   0.0000   0.0000   0.0000   0.2390
  11.700   1.1617   0.05432   0.04897  -0.0016  0.0300  1.0000  -5.5727   0.0000   0.0000   0.0000   0.2384
  11.800   1.1565   0.05578   0.05052  -0.0012  0.0299  1.0000  -5.5686   0.0000   0.0000   0.0000   0.2378
  11.900   1.1509   0.05732   0.05216  -0.0009  0.0298  1.0000  -5.5605   0.0000   0.0000   0.0000   0.2374
  12.000   1.1448   0.05897   0.05391  -0.0007  0.0298  1.0000  -5.5480   0.0000   0.0000   0.0000   0.2371
  12.100   1.1382   0.06074   0.05577  -0.0007  0.0298  1.0000  -5.5303   0.0000   0.0000   0.0000   0.2369
  12.200   1.1309   0.06263   0.05776  -0.0008  0.0298  1.0000  -5.5063   0.0000   0.0000   0.0000   0.2369
  12.300   1.1228   0.06467   0.05990  -0.0012  0.0298  1.0000  -5.4753   0.0000   0.0000   0.0000   0.2371
  12.400   1.1140   0.06689   0.06222  -0.0018  0.0298  1.0000  -5.4366   0.0000   0.0000   0.0000   0.2374
  12.500   1.1043   0.06933   0.06477  -0.0026  0.0299  1.0000  -5.3890   0.0000   0.0000   0.0000   0.2381
  12.600   1.0937   0.07201   0.06756  -0.0038  0.0300  1.0000  -5.3315   0.0000   0.0000   0.0000   0.2390
  12.700   1.0822   0.07498   0.07063  -0.0052  0.0301  1.0000  -5.2631   0.0000   0.0000   0.0000   0.2402
  12.800   1.0698   0.07821   0.07397  -0.0070  0.0303  1.0000  -5.1845   0.0000   0.0000   0.0000   0.2417
  12.900   1.0565   0.08174   0.07760  -0.0091  0.0305  1.0000  -5.0951   0.0000   0.0000   0.0000   0.2436
  13.000   1.0423   0.08563   0.08160  -0.0115  0.0308  1.0000  -4.9935   0.0000   0.0000   0.0000   0.2460
  13.100   1.0271   0.08996   0.08602  -0.0144  0.0311  1.0000  -4.8777   0.0000   0.0000   0.0000   0.2488
  13.200   1.0108   0.09477   0.09092  -0.0177  0.0315  1.0000  -4.7456   0.0000   0.0000   0.0000   0.2522
  13.300   0.9933   0.10012   0.09635  -0.0214  0.0319  1.0000  -4.5939   0.0000   0.0000   0.0000   0.2562
  13.400   0.9742   0.10623   0.10254  -0.0256  0.0325  1.0000  -4.4127   0.0000   0.0000   0.0000   0.2609
  13.500   0.9533   0.11316   0.10948  -0.0301  0.0334  1.0000  -4.1889   0.0000   0.0000   0.0000   0.2662
  13.600   0.9366   0.11936   0.11570  -0.0337  0.0343  1.0000  -4.0000   0.0000   0.0000   0.0000   0.2707
  13.700   0.9238   0.12470   0.12105  -0.0366  0.0349  1.0000  -3.8465   0.0000   0.0000   0.0000   0.2744
  13.800   0.9136   0.12943   0.12578  -0.0390  0.0353  1.0000  -3.7174   0.0000   0.0000   0.0000   0.2774
  13.900   0.9055   0.13371   0.13005  -0.0410  0.0357  1.0000  -3.6062   0.0000   0.0000   0.0000   0.2800
  14.000   0.8989   0.13759   0.13393  -0.0427  0.0359  1.0000  -3.5109   0.0000   0.0000   0.0000   0.2822
  14.100   0.8937   0.14111   0.13744  -0.0442  0.0361  1.0000  -3.4309   0.0000   0.0000   0.0000   0.2841
  14.200   0.8898   0.14426   0.14059  -0.0454  0.0362  1.0000  -3.3669   0.0000   0.0000   0.0000   0.2857
  14.400   0.8688   0.16392   0.16029  -0.0499  0.0595  1.0000  -2.5978   0.0000   0.0000   0.0000   0.2930
  14.500   0.8650   0.16766   0.16400  -0.0510  0.0592  1.0000  -2.5399   0.0000   0.0000   0.0000   0.2945
  14.600   0.8644   0.17019   0.16653  -0.0524  0.0592  1.0000  -2.5025   0.0000   0.0000   0.0000   0.2960
  14.700   0.8638   0.17268   0.16901  -0.0537  0.0591  1.0000  -2.4637   0.0000   0.0000   0.0000   0.2975
  14.800   0.8632   0.17511   0.17144  -0.0552  0.0590  1.0000  -2.4229   0.0000   0.0000   0.0000   0.2991
  14.900   0.8625   0.17750   0.17382  -0.0568  0.0589  1.0000  -2.3780   0.0000   0.0000   0.0000   0.3010
  15.000   0.8589   0.18032   0.17663  -0.0594  0.0586  1.0000  -2.2959   0.0000   0.0000   0.0000   0.3043


