xflr5 v6.55

 Calculated polar for: NACA 2410

 1 1 Reynolds number fixed          Mach number fixed         

 xtrf =   1.000 (top)        1.000 (bottom)
 Mach =   0.200     Re =     0.070 e 6     Ncrit =   9.000

  alpha     CL        CD       CDp       Cm    Top Xtr Bot Xtr   Cpmin    Chinge    XCp    
 ------- -------- --------- --------- -------- ------- ------- -------- --------- ---------
   0.000   0.0620   0.01920   0.01075  -0.0333  0.9778  1.0000  -0.5107   0.0000   0.0000   0.0000   0.7867
   0.100   0.0812   0.01939   0.01090  -0.0352  0.9711  1.0000  -0.4754   0.0000   0.0000   0.0000   0.6827
   0.200   0.1046   0.01964   0.01110  -0.0378  0.9660  1.0000  -0.4356   0.0000   0.0000   0.0000   0.6107
   0.300   0.1243   0.01984   0.01126  -0.0397  0.9601  1.0000  -0.4282   0.0000   0.0000   0.0000   0.5686
   0.400   0.1420   0.02001   0.01140  -0.0413  0.9530  1.0000  -0.4394   0.0000   0.0000   0.0000   0.5394
   0.500   0.1650   0.02020   0.01155  -0.0437  0.9478  1.0000  -0.4546   0.0000   0.0000   0.0000   0.5136
   0.600   0.1864   0.02038   0.01170  -0.0459  0.9425  1.0000  -0.4689   0.0000   0.0000   0.0000   0.4945
   0.700   0.2000   0.02051   0.01182  -0.0466  0.9342  1.0000  -0.4786   0.0000   0.0000   0.0000   0.4812
   0.800   0.2217   0.02063   0.01192  -0.0487  0.9285  1.0000  -0.4937   0.0000   0.0000   0.0000   0.4678
   0.900   0.2476   0.02075   0.01202  -0.0515  0.9243  1.0000  -0.5120   0.0000   0.0000   0.0000   0.4561
   1.000   0.2567   0.02089   0.01215  -0.0513  0.9154  1.0000  -0.5199   0.0000   0.0000   0.0000   0.4480
   1.100   0.2753   0.02098   0.01224  -0.0528  0.9088  1.0000  -0.5340   0.0000   0.0000   0.0000   0.4397
   1.200   0.2995   0.02103   0.01228  -0.0552  0.9040  1.0000  -0.5528   0.0000   0.0000   0.0000   0.4322
   1.300   0.3213   0.02109   0.01234  -0.0571  0.8990  1.0000  -0.5701   0.0000   0.0000   0.0000   0.4257
   1.400   0.3291   0.02124   0.01248  -0.0566  0.8895  1.0000  -0.5785   0.0000   0.0000   0.0000   0.4199
   1.500   0.3502   0.02124   0.01250  -0.0584  0.8837  1.0000  -0.5968   0.0000   0.0000   0.0000   0.4144
   1.600   0.3752   0.02119   0.01246  -0.0607  0.8795  1.0000  -0.6185   0.0000   0.0000   0.0000   0.4095
   1.700   0.3923   0.02124   0.01252  -0.0617  0.8736  1.0000  -0.6355   0.0000   0.0000   0.0000   0.4048
   1.800   0.4007   0.02138   0.01267  -0.0612  0.8644  1.0000  -0.6462   0.0000   0.0000   0.0000   0.4003
   1.900   0.4198   0.02133   0.01263  -0.0624  0.8586  1.0000  -0.6665   0.0000   0.0000   0.0000   0.3961
   2.000   0.4422   0.02120   0.01252  -0.0640  0.8542  1.0000  -0.6913   0.0000   0.0000   0.0000   0.3921
   2.100   0.4576   0.02122   0.01256  -0.0645  0.8480  1.0000  -0.7115   0.0000   0.0000   0.0000   0.3884
   2.200   0.4647   0.02140   0.01275  -0.0638  0.8387  1.0000  -0.7248   0.0000   0.0000   0.0000   0.3846
   2.300   0.4818   0.02133   0.01274  -0.0645  0.8327  1.0000  -0.7502   0.0000   0.0000   0.0000   0.3811
   2.400   0.5022   0.02115   0.01259  -0.0656  0.8281  1.0000  -0.7822   0.0000   0.0000   0.0000   0.3777
   2.500   0.5172   0.02113   0.01258  -0.0659  0.8220  1.0000  -0.8106   0.0000   0.0000   0.0000   0.3744
   2.600   0.5229   0.02135   0.01282  -0.0649  0.8123  1.0000  -0.8282   0.0000   0.0000   0.0000   0.3712
   2.700   0.5382   0.02127   0.01276  -0.0652  0.8060  1.0000  -0.8605   0.0000   0.0000   0.0000   0.3681
   2.800   0.5569   0.02107   0.01258  -0.0658  0.8011  1.0000  -0.9006   0.0000   0.0000   0.0000   0.3651
   2.900   0.5707   0.02104   0.01257  -0.0658  0.7949  1.0000  -0.9337   0.0000   0.0000   0.0000   0.3621
   3.000   0.5762   0.02129   0.01284  -0.0648  0.7850  1.0000  -0.9574   0.0000   0.0000   0.0000   0.3593
   3.100   0.5904   0.02120   0.01277  -0.0648  0.7783  1.0000  -0.9970   0.0000   0.0000   0.0000   0.3565
   3.200   0.6075   0.02099   0.01258  -0.0650  0.7731  1.0000  -1.0422   0.0000   0.0000   0.0000   0.3537
   3.300   0.6187   0.02104   0.01265  -0.0646  0.7659  1.0000  -1.0772   0.0000   0.0000   0.0000   0.3510
   3.400   0.6258   0.02124   0.01287  -0.0638  0.7563  1.0000  -1.1067   0.0000   0.0000   0.0000   0.3485
   3.500   0.6395   0.02113   0.01278  -0.0636  0.7493  1.0000  -1.1539   0.0000   0.0000   0.0000   0.3459
   3.600   0.6554   0.02091   0.01257  -0.0635  0.7438  1.0000  -1.2069   0.0000   0.0000   0.0000   0.3433
   3.700   0.6635   0.02110   0.01279  -0.0628  0.7349  1.0000  -1.2426   0.0000   0.0000   0.0000   0.3410
   3.800   0.6727   0.02119   0.01292  -0.0622  0.7257  1.0000  -1.2812   0.0000   0.0000   0.0000   0.3386
   3.900   0.6863   0.02105   0.01286  -0.0618  0.7187  1.0000  -1.3310   0.0000   0.0000   0.0000   0.3362
   4.100   0.7068   0.02117   0.01303  -0.0606  0.7015  1.0000  -1.4151   0.0000   0.0000   0.0000   0.3317
   4.200   0.7181   0.02112   0.01300  -0.0600  0.6928  1.0000  -1.4683   0.0000   0.0000   0.0000   0.3294
   4.300   0.7328   0.02091   0.01276  -0.0596  0.6857  1.0000  -1.5327   0.0000   0.0000   0.0000   0.3271
   4.400   0.7402   0.02111   0.01301  -0.0588  0.6753  1.0000  -1.5765   0.0000   0.0000   0.0000   0.3251
   4.500   0.7500   0.02113   0.01305  -0.0580  0.6652  1.0000  -1.6280   0.0000   0.0000   0.0000   0.3230
   4.600   0.7639   0.02093   0.01281  -0.0574  0.6569  1.0000  -1.6926   0.0000   0.0000   0.0000   0.3207
   4.700   0.7719   0.02108   0.01301  -0.0566  0.6460  1.0000  -1.7395   0.0000   0.0000   0.0000   0.3188
   4.800   0.7817   0.02108   0.01302  -0.0558  0.6349  1.0000  -1.7929   0.0000   0.0000   0.0000   0.3167
   4.900   0.7955   0.02088   0.01274  -0.0551  0.6256  1.0000  -1.8601   0.0000   0.0000   0.0000   0.3146
   5.000   0.8019   0.02108   0.01302  -0.0542  0.6130  1.0000  -1.9032   0.0000   0.0000   0.0000   0.3128
   5.100   0.8130   0.02097   0.01288  -0.0534  0.6014  1.0000  -1.9630   0.0000   0.0000   0.0000   0.3107
   5.200   0.8229   0.02099   0.01289  -0.0525  0.5897  1.0000  -2.0190   0.0000   0.0000   0.0000   0.3088
   5.300   0.8316   0.02102   0.01294  -0.0516  0.5762  1.0000  -2.0715   0.0000   0.0000   0.0000   0.3069
   5.400   0.8431   0.02093   0.01276  -0.0508  0.5644  1.0000  -2.1460   0.0000   0.0000   0.0000   0.3050
   5.500   0.8501   0.02103   0.01293  -0.0498  0.5494  1.0000  -2.2035   0.0000   0.0000   0.0000   0.3032
   5.600   0.8615   0.02094   0.01271  -0.0489  0.5365  1.0000  -2.2803   0.0000   0.0000   0.0000   0.3013
   5.700   0.8680   0.02106   0.01301  -0.0479  0.5204  1.0000  -2.3334   0.0000   0.0000   0.0000   0.2996
   5.800   0.8780   0.02103   0.01287  -0.0469  0.5059  1.0000  -2.4018   0.0000   0.0000   0.0000   0.2978
   5.900   0.8849   0.02110   0.01300  -0.0458  0.4882  1.0000  -2.4602   0.0000   0.0000   0.0000   0.2960
   6.000   0.8929   0.02116   0.01301  -0.0448  0.4709  1.0000  -2.5244   0.0000   0.0000   0.0000   0.2942
   6.100   0.9008   0.02120   0.01297  -0.0436  0.4523  1.0000  -2.5897   0.0000   0.0000   0.0000   0.2924
   6.200   0.9069   0.02132   0.01311  -0.0424  0.4308  1.0000  -2.6465   0.0000   0.0000   0.0000   0.2907
   6.300   0.9131   0.02145   0.01319  -0.0412  0.4074  1.0000  -2.7041   0.0000   0.0000   0.0000   0.2889
   6.400   0.9186   0.02163   0.01328  -0.0399  0.3813  1.0000  -2.7588   0.0000   0.0000   0.0000   0.2870
   6.500   0.9232   0.02190   0.01342  -0.0384  0.3521  1.0000  -2.8094   0.0000   0.0000   0.0000   0.2851
   6.600   0.9270   0.02230   0.01360  -0.0370  0.3209  1.0000  -2.8552   0.0000   0.0000   0.0000   0.2832
   6.700   0.9300   0.02289   0.01388  -0.0355  0.2900  1.0000  -2.8968   0.0000   0.0000   0.0000   0.2814
   6.800   0.9335   0.02357   0.01438  -0.0342  0.2588  1.0000  -2.9337   0.0000   0.0000   0.0000   0.2797
   6.900   0.9375   0.02435   0.01495  -0.0330  0.2335  1.0000  -2.9702   0.0000   0.0000   0.0000   0.2782
   7.000   0.9424   0.02518   0.01557  -0.0319  0.2133  1.0000  -3.0078   0.0000   0.0000   0.0000   0.2767
   7.100   0.9477   0.02601   0.01616  -0.0310  0.1970  1.0000  -3.0492   0.0000   0.0000   0.0000   0.2755
   7.200   0.9540   0.02667   0.01681  -0.0301  0.1819  1.0000  -3.0897   0.0000   0.0000   0.0000   0.2742
   7.300   0.9606   0.02745   0.01751  -0.0294  0.1696  1.0000  -3.1321   0.0000   0.0000   0.0000   0.2731
   7.400   0.9673   0.02815   0.01809  -0.0286  0.1594  1.0000  -3.1790   0.0000   0.0000   0.0000   0.2721
   7.500   0.9762   0.02903   0.01895  -0.0281  0.1510  1.0000  -3.2197   0.0000   0.0000   0.0000   0.2711
   7.600   0.9849   0.02978   0.01969  -0.0275  0.1437  1.0000  -3.2635   0.0000   0.0000   0.0000   0.2702
   7.700   0.9956   0.03095   0.02062  -0.0274  0.1374  1.0000  -3.3152   0.0000   0.0000   0.0000   0.2697
   7.800   1.0043   0.03167   0.02153  -0.0267  0.1321  1.0000  -3.3483   0.0000   0.0000   0.0000   0.2686
   7.900   1.0126   0.03238   0.02228  -0.0262  0.1264  1.0000  -3.3917   0.0000   0.0000   0.0000   0.2678
   8.000   1.0219   0.03332   0.02311  -0.0260  0.1209  1.0000  -3.4504   0.0000   0.0000   0.0000   0.2673
   8.100   1.0296   0.03418   0.02410  -0.0254  0.1162  1.0000  -3.4868   0.0000   0.0000   0.0000   0.2664
   8.200   1.0370   0.03489   0.02494  -0.0247  0.1117  1.0000  -3.5240   0.0000   0.0000   0.0000   0.2655
   8.300   1.0458   0.03575   0.02584  -0.0243  0.1082  1.0000  -3.5652   0.0000   0.0000   0.0000   0.2647
   8.400   1.0556   0.03680   0.02683  -0.0241  0.1053  1.0000  -3.6197   0.0000   0.0000   0.0000   0.2642
   8.500   1.0669   0.03855   0.02849  -0.0242  0.1026  1.0000  -3.6813   0.0000   0.0000   0.0000   0.2640
   8.600   1.0735   0.03950   0.02969  -0.0234  0.1011  1.0000  -3.7167   0.0000   0.0000   0.0000   0.2629
   8.700   1.0800   0.04061   0.03102  -0.0226  0.0996  1.0000  -3.7507   0.0000   0.0000   0.0000   0.2620
   8.800   1.0863   0.04180   0.03241  -0.0218  0.0981  1.0000  -3.7833   0.0000   0.0000   0.0000   0.2611
   8.900   1.0920   0.04304   0.03383  -0.0210  0.0968  1.0000  -3.8144   0.0000   0.0000   0.0000   0.2602
   9.000   1.0973   0.04433   0.03529  -0.0203  0.0956  1.0000  -3.8437   0.0000   0.0000   0.0000   0.2593
   9.100   1.1020   0.04563   0.03675  -0.0195  0.0946  1.0000  -3.8720   0.0000   0.0000   0.0000   0.2584
   9.200   1.1067   0.04684   0.03809  -0.0187  0.0932  1.0000  -3.9061   0.0000   0.0000   0.0000   0.2575
   9.300   1.1129   0.04790   0.03918  -0.0182  0.0913  1.0000  -3.9583   0.0000   0.0000   0.0000   0.2569
   9.400   1.1194   0.04902   0.04026  -0.0179  0.0891  1.0000  -4.0222   0.0000   0.0000   0.0000   0.2563
   9.500   1.1246   0.05138   0.04253  -0.0179  0.0871  1.0000  -4.0675   0.0000   0.0000   0.0000   0.2562
   9.600   1.1228   0.05225   0.04367  -0.0164  0.0862  1.0000  -4.0720   0.0000   0.0000   0.0000   0.2548
   9.700   1.1207   0.05333   0.04501  -0.0151  0.0853  1.0000  -4.0740   0.0000   0.0000   0.0000   0.2535
   9.800   1.1185   0.05457   0.04646  -0.0138  0.0843  1.0000  -4.0747   0.0000   0.0000   0.0000   0.2524
   9.900   1.1159   0.05590   0.04798  -0.0127  0.0835  1.0000  -4.0741   0.0000   0.0000   0.0000   0.2512
  10.000   1.1129   0.05731   0.04956  -0.0115  0.0829  1.0000  -4.0714   0.0000   0.0000   0.0000   0.2502
  10.100   1.1093   0.05879   0.05120  -0.0105  0.0824  1.0000  -4.0656   0.0000   0.0000   0.0000   0.2491
  10.200   1.1050   0.06035   0.05291  -0.0094  0.0823  1.0000  -4.0555   0.0000   0.0000   0.0000   0.2481
  10.300   1.0998   0.06195   0.05465  -0.0084  0.0822  1.0000  -4.0418   0.0000   0.0000   0.0000   0.2472
  10.400   1.0936   0.06355   0.05638  -0.0074  0.0822  1.0000  -4.0250   0.0000   0.0000   0.0000   0.2462
  10.500   1.0861   0.06508   0.05801  -0.0063  0.0823  1.0000  -4.0053   0.0000   0.0000   0.0000   0.2451
  10.600   1.0780   0.06665   0.05969  -0.0053  0.0824  1.0000  -3.9831   0.0000   0.0000   0.0000   0.2441
  10.700   1.0694   0.06830   0.06144  -0.0044  0.0825  1.0000  -3.9584   0.0000   0.0000   0.0000   0.2432
  10.800   1.0603   0.07003   0.06326  -0.0038  0.0827  1.0000  -3.9312   0.0000   0.0000   0.0000   0.2426
  10.900   1.0509   0.07186   0.06517  -0.0034  0.0829  1.0000  -3.9014   0.0000   0.0000   0.0000   0.2421
  11.000   1.0411   0.07380   0.06720  -0.0033  0.0832  1.0000  -3.8690   0.0000   0.0000   0.0000   0.2419
  11.100   1.0311   0.07587   0.06934  -0.0035  0.0834  1.0000  -3.8341   0.0000   0.0000   0.0000   0.2420
  11.200   1.0210   0.07806   0.07161  -0.0039  0.0837  1.0000  -3.7966   0.0000   0.0000   0.0000   0.2422
  11.300   1.0108   0.08041   0.07402  -0.0045  0.0840  1.0000  -3.7567   0.0000   0.0000   0.0000   0.2428
  11.400   1.0006   0.08291   0.07657  -0.0054  0.0844  1.0000  -3.7145   0.0000   0.0000   0.0000   0.2436
  11.500   0.9905   0.08553   0.07924  -0.0065  0.0847  1.0000  -3.6705   0.0000   0.0000   0.0000   0.2447
  11.600   0.9808   0.08829   0.08204  -0.0078  0.0851  1.0000  -3.6253   0.0000   0.0000   0.0000   0.2459
  11.700   0.9716   0.09116   0.08495  -0.0092  0.0854  1.0000  -3.5797   0.0000   0.0000   0.0000   0.2473
  11.800   0.9631   0.09410   0.08792  -0.0107  0.0858  1.0000  -3.5352   0.0000   0.0000   0.0000   0.2488
  11.900   0.9557   0.09707   0.09091  -0.0121  0.0862  1.0000  -3.4931   0.0000   0.0000   0.0000   0.2502
  12.000   0.9494   0.10001   0.09386  -0.0134  0.0865  1.0000  -3.4555   0.0000   0.0000   0.0000   0.2516
  12.100   0.9447   0.10287   0.09673  -0.0144  0.0868  1.0000  -3.4248   0.0000   0.0000   0.0000   0.2527
  12.300   0.8739   0.12464   0.11855  -0.0315  0.1016  1.0000  -2.7339   0.0000   0.0000   0.0000   0.2739
  12.400   0.8715   0.12743   0.12132  -0.0326  0.1019  1.0000  -2.7053   0.0000   0.0000   0.0000   0.2752
  12.500   0.8700   0.13009   0.12398  -0.0335  0.1021  1.0000  -2.6819   0.0000   0.0000   0.0000   0.2762
  12.600   0.8695   0.13256   0.12645  -0.0341  0.1023  1.0000  -2.6672   0.0000   0.0000   0.0000   0.2769
  12.700   0.8720   0.13461   0.12850  -0.0341  0.1026  1.0000  -2.6750   0.0000   0.0000   0.0000   0.2767
  12.900   0.8311   0.16471   0.15851  -0.0538  0.1969  1.0000  -1.9062   0.0000   0.0000   0.0000   0.3034
  13.000   0.8205   0.16571   0.15948  -0.0559  0.1963  1.0000  -1.8529   0.0000   0.0000   0.0000   0.3067
  13.100   0.8087   0.16642   0.16015  -0.0582  0.1950  1.0000  -1.7949   0.0000   0.0000   0.0000   0.3103
  13.200   0.7991   0.16706   0.16075  -0.0600  0.1922  1.0000  -1.7490   0.0000   0.0000   0.0000   0.3133
  13.300   0.7968   0.16810   0.16178  -0.0608  0.1879  1.0000  -1.7366   0.0000   0.0000   0.0000   0.3145
  13.400   0.8053   0.16936   0.16307  -0.0601  0.1820  1.0000  -1.7787   0.0000   0.0000   0.0000   0.3126
  13.500   0.8352   0.17291   0.16670  -0.0562  0.1777  1.0000  -1.9159   0.0000   0.0000   0.0000   0.3052
  13.700   0.8434   0.17879   0.17257  -0.0565  0.1762  1.0000  -1.9300   0.0000   0.0000   0.0000   0.3048
  13.800   0.8294   0.17895   0.17269  -0.0594  0.1754  1.0000  -1.8572   0.0000   0.0000   0.0000   0.3092
  13.900   0.8127   0.17837   0.17205  -0.0624  0.1730  1.0000  -1.7760   0.0000   0.0000   0.0000   0.3143
  14.000   0.8083   0.17921   0.17287  -0.0638  0.1698  1.0000  -1.7485   0.0000   0.0000   0.0000   0.3163
  14.100   0.8088   0.18055   0.17422  -0.0645  0.1671  1.0000  -1.7433   0.0000   0.0000   0.0000   0.3170
  14.200   0.8113   0.18203   0.17570  -0.0649  0.1648  1.0000  -1.7478   0.0000   0.0000   0.0000   0.3171
  14.300   0.8153   0.18363   0.17730  -0.0651  0.1627  1.0000  -1.7605   0.0000   0.0000   0.0000   0.3167
  14.400   0.8214   0.18545   0.17914  -0.0649  0.1608  1.0000  -1.7831   0.0000   0.0000   0.0000   0.3158
  14.500   0.8311   0.18789   0.18167  -0.0642  0.1591  1.0000  -1.8182   0.0000   0.0000   0.0000   0.3140
  14.600   0.8486   0.19202   0.18586  -0.0624  0.1576  1.0000  -1.8897   0.0000   0.0000   0.0000   0.3102
  14.700   0.8649   0.19758   0.19144  -0.0605  0.1565  1.0000  -1.9536   0.0000   0.0000   0.0000   0.3066
  14.800   0.8557   0.19782   0.19164  -0.0629  0.1562  1.0000  -1.8970   0.0000   0.0000   0.0000   0.3100
  14.900   0.8438   0.19726   0.19103  -0.0657  0.1554  1.0000  -1.8292   0.0000   0.0000   0.0000   0.3142
  15.000   0.8313   0.19615   0.18988  -0.0684  0.1537  1.0000  -1.7616   0.0000   0.0000   0.0000   0.3185


