xflr5 v6.55

 Calculated polar for: NACA 2410

 1 1 Reynolds number fixed          Mach number fixed         

 xtrf =   1.000 (top)        1.000 (bottom)
 Mach =   0.200     Re =     0.085 e 6     Ncrit =   9.000

  alpha     CL        CD       CDp       Cm    Top Xtr Bot Xtr   Cpmin    Chinge    XCp    
 ------- -------- --------- --------- -------- ------- ------- -------- --------- ---------
   0.000   0.1371   0.01757   0.00986  -0.0458  0.9481  1.0000  -0.4329   0.0000   0.0000   0.0000   0.5837
   0.100   0.1615   0.01767   0.00993  -0.0484  0.9447  1.0000  -0.4482   0.0000   0.0000   0.0000   0.5493
   0.200   0.1722   0.01774   0.00998  -0.0485  0.9362  1.0000  -0.4558   0.0000   0.0000   0.0000   0.5309
   0.300   0.1919   0.01780   0.01001  -0.0502  0.9307  1.0000  -0.4689   0.0000   0.0000   0.0000   0.5106
   0.400   0.2152   0.01784   0.01002  -0.0525  0.9265  1.0000  -0.4847   0.0000   0.0000   0.0000   0.4930
   0.500   0.2396   0.01787   0.01003  -0.0551  0.9230  1.0000  -0.5012   0.0000   0.0000   0.0000   0.4785
   0.600   0.2477   0.01795   0.01010  -0.0546  0.9137  1.0000  -0.5082   0.0000   0.0000   0.0000   0.4688
   0.700   0.2679   0.01795   0.01008  -0.0562  0.9083  1.0000  -0.5231   0.0000   0.0000   0.0000   0.4584
   0.800   0.2918   0.01791   0.01004  -0.0586  0.9044  1.0000  -0.5406   0.0000   0.0000   0.0000   0.4490
   0.900   0.3170   0.01785   0.00996  -0.0610  0.9013  1.0000  -0.5591   0.0000   0.0000   0.0000   0.4408
   1.000   0.3233   0.01796   0.01007  -0.0602  0.8916  1.0000  -0.5664   0.0000   0.0000   0.0000   0.4343
   1.100   0.3408   0.01793   0.01003  -0.0612  0.8856  1.0000  -0.5813   0.0000   0.0000   0.0000   0.4276
   1.200   0.3618   0.01783   0.00993  -0.0628  0.8812  1.0000  -0.5988   0.0000   0.0000   0.0000   0.4215
   1.300   0.3843   0.01771   0.00981  -0.0645  0.8777  1.0000  -0.6185   0.0000   0.0000   0.0000   0.4159
   1.400   0.3910   0.01783   0.00993  -0.0637  0.8684  1.0000  -0.6271   0.0000   0.0000   0.0000   0.4108
   1.500   0.4054   0.01781   0.00991  -0.0641  0.8616  1.0000  -0.6421   0.0000   0.0000   0.0000   0.4058
   1.600   0.4239   0.01768   0.00979  -0.0650  0.8566  1.0000  -0.6608   0.0000   0.0000   0.0000   0.4012
   1.700   0.4441   0.01752   0.00964  -0.0662  0.8527  1.0000  -0.6822   0.0000   0.0000   0.0000   0.3968
   1.800   0.4515   0.01764   0.00976  -0.0654  0.8437  1.0000  -0.6939   0.0000   0.0000   0.0000   0.3925
   1.900   0.4636   0.01764   0.00976  -0.0653  0.8363  1.0000  -0.7105   0.0000   0.0000   0.0000   0.3885
   2.000   0.4798   0.01752   0.00965  -0.0658  0.8309  1.0000  -0.7326   0.0000   0.0000   0.0000   0.3846
   2.100   0.4975   0.01736   0.00954  -0.0664  0.8265  1.0000  -0.7584   0.0000   0.0000   0.0000   0.3809
   2.200   0.5052   0.01749   0.00967  -0.0657  0.8176  1.0000  -0.7756   0.0000   0.0000   0.0000   0.3773
   2.300   0.5161   0.01750   0.00969  -0.0653  0.8097  1.0000  -0.7973   0.0000   0.0000   0.0000   0.3738
   2.400   0.5304   0.01740   0.00959  -0.0654  0.8038  1.0000  -0.8262   0.0000   0.0000   0.0000   0.3705
   2.500   0.5465   0.01725   0.00943  -0.0656  0.7991  1.0000  -0.8586   0.0000   0.0000   0.0000   0.3673
   2.600   0.5538   0.01741   0.00960  -0.0649  0.7899  1.0000  -0.8819   0.0000   0.0000   0.0000   0.3642
   2.700   0.5642   0.01743   0.00963  -0.0644  0.7819  1.0000  -0.9099   0.0000   0.0000   0.0000   0.3611
   2.800   0.5776   0.01734   0.00954  -0.0642  0.7757  1.0000  -0.9434   0.0000   0.0000   0.0000   0.3581
   2.900   0.5924   0.01722   0.00939  -0.0642  0.7706  1.0000  -0.9843   0.0000   0.0000   0.0000   0.3553
   3.000   0.5991   0.01742   0.00962  -0.0634  0.7608  1.0000  -1.0108   0.0000   0.0000   0.0000   0.3526
   3.100   0.6095   0.01744   0.00965  -0.0629  0.7528  1.0000  -1.0444   0.0000   0.0000   0.0000   0.3499
   3.200   0.6225   0.01736   0.00956  -0.0626  0.7464  1.0000  -1.0832   0.0000   0.0000   0.0000   0.3473
   3.300   0.6354   0.01732   0.00949  -0.0624  0.7403  1.0000  -1.1261   0.0000   0.0000   0.0000   0.3447
   3.400   0.6424   0.01751   0.00973  -0.0616  0.7303  1.0000  -1.1590   0.0000   0.0000   0.0000   0.3424
   3.500   0.6533   0.01752   0.00973  -0.0611  0.7223  1.0000  -1.2011   0.0000   0.0000   0.0000   0.3399
   3.600   0.6662   0.01744   0.00963  -0.0608  0.7157  1.0000  -1.2481   0.0000   0.0000   0.0000   0.3375
   3.700   0.6758   0.01755   0.00975  -0.0602  0.7075  1.0000  -1.2880   0.0000   0.0000   0.0000   0.3354
   3.800   0.6847   0.01765   0.00996  -0.0596  0.6980  1.0000  -1.3268   0.0000   0.0000   0.0000   0.3332
   3.900   0.6963   0.01763   0.00991  -0.0591  0.6900  1.0000  -1.3726   0.0000   0.0000   0.0000   0.3310
   4.000   0.7089   0.01760   0.00983  -0.0587  0.6832  1.0000  -1.4213   0.0000   0.0000   0.0000   0.3288
   4.100   0.7162   0.01778   0.01008  -0.0579  0.6725  1.0000  -1.4635   0.0000   0.0000   0.0000   0.3268
   4.200   0.7268   0.01779   0.01008  -0.0574  0.6633  1.0000  -1.5161   0.0000   0.0000   0.0000   0.3248
   4.300   0.7391   0.01775   0.00998  -0.0569  0.6556  1.0000  -1.5746   0.0000   0.0000   0.0000   0.3227
   4.400   0.7471   0.01790   0.01018  -0.0562  0.6449  1.0000  -1.6205   0.0000   0.0000   0.0000   0.3208
   4.500   0.7571   0.01793   0.01021  -0.0555  0.6347  1.0000  -1.6734   0.0000   0.0000   0.0000   0.3189
   4.600   0.7690   0.01790   0.01010  -0.0549  0.6260  1.0000  -1.7330   0.0000   0.0000   0.0000   0.3169
   4.700   0.7770   0.01804   0.01030  -0.0542  0.6145  1.0000  -1.7804   0.0000   0.0000   0.0000   0.3152
   4.800   0.7870   0.01805   0.01029  -0.0535  0.6035  1.0000  -1.8352   0.0000   0.0000   0.0000   0.3133
   4.900   0.7979   0.01808   0.01024  -0.0529  0.5937  1.0000  -1.8937   0.0000   0.0000   0.0000   0.3115
   5.000   0.8060   0.01818   0.01041  -0.0521  0.5810  1.0000  -1.9427   0.0000   0.0000   0.0000   0.3098
   5.100   0.8163   0.01818   0.01035  -0.0514  0.5698  1.0000  -2.0006   0.0000   0.0000   0.0000   0.3080
   5.200   0.8252   0.01827   0.01046  -0.0507  0.5576  1.0000  -2.0532   0.0000   0.0000   0.0000   0.3063
   5.300   0.8343   0.01831   0.01049  -0.0499  0.5446  1.0000  -2.1155   0.0000   0.0000   0.0000   0.3046
   5.400   0.8439   0.01838   0.01051  -0.0492  0.5326  1.0000  -2.1833   0.0000   0.0000   0.0000   0.3030
   5.500   0.8522   0.01845   0.01061  -0.0483  0.5181  1.0000  -2.2462   0.0000   0.0000   0.0000   0.3013
   5.600   0.8617   0.01852   0.01059  -0.0476  0.5051  1.0000  -2.3154   0.0000   0.0000   0.0000   0.2997
   5.700   0.8694   0.01860   0.01080  -0.0467  0.4892  1.0000  -2.3714   0.0000   0.0000   0.0000   0.2981
   5.800   0.8781   0.01869   0.01083  -0.0459  0.4746  1.0000  -2.4367   0.0000   0.0000   0.0000   0.2965
   5.900   0.8858   0.01878   0.01093  -0.0450  0.4575  1.0000  -2.4991   0.0000   0.0000   0.0000   0.2949
   6.000   0.8936   0.01890   0.01103  -0.0440  0.4395  1.0000  -2.5621   0.0000   0.0000   0.0000   0.2933
   6.100   0.9010   0.01903   0.01105  -0.0430  0.4208  1.0000  -2.6257   0.0000   0.0000   0.0000   0.2917
   6.200   0.9077   0.01917   0.01119  -0.0420  0.3984  1.0000  -2.6853   0.0000   0.0000   0.0000   0.2901
   6.300   0.9139   0.01936   0.01133  -0.0409  0.3733  1.0000  -2.7433   0.0000   0.0000   0.0000   0.2885
   6.400   0.9193   0.01964   0.01147  -0.0397  0.3449  1.0000  -2.7981   0.0000   0.0000   0.0000   0.2868
   6.500   0.9238   0.02003   0.01167  -0.0385  0.3134  1.0000  -2.8484   0.0000   0.0000   0.0000   0.2851
   6.600   0.9278   0.02055   0.01202  -0.0372  0.2785  1.0000  -2.8938   0.0000   0.0000   0.0000   0.2834
   6.700   0.9311   0.02124   0.01244  -0.0359  0.2471  1.0000  -2.9344   0.0000   0.0000   0.0000   0.2818
   6.800   0.9344   0.02202   0.01295  -0.0347  0.2207  1.0000  -2.9728   0.0000   0.0000   0.0000   0.2802
   6.900   0.9385   0.02280   0.01352  -0.0336  0.1986  1.0000  -3.0120   0.0000   0.0000   0.0000   0.2788
   7.000   0.9437   0.02349   0.01410  -0.0327  0.1802  1.0000  -3.0537   0.0000   0.0000   0.0000   0.2774
   7.100   0.9495   0.02418   0.01470  -0.0318  0.1652  1.0000  -3.0963   0.0000   0.0000   0.0000   0.2762
   7.200   0.9550   0.02496   0.01531  -0.0309  0.1542  1.0000  -3.1398   0.0000   0.0000   0.0000   0.2750
   7.300   0.9623   0.02558   0.01594  -0.0301  0.1444  1.0000  -3.1835   0.0000   0.0000   0.0000   0.2738
   7.400   0.9691   0.02649   0.01666  -0.0295  0.1370  1.0000  -3.2287   0.0000   0.0000   0.0000   0.2728
   7.500   0.9778   0.02711   0.01738  -0.0288  0.1300  1.0000  -3.2704   0.0000   0.0000   0.0000   0.2718
   7.600   0.9856   0.02778   0.01798  -0.0282  0.1238  1.0000  -3.3191   0.0000   0.0000   0.0000   0.2708
   7.700   0.9942   0.02874   0.01882  -0.0278  0.1181  1.0000  -3.3674   0.0000   0.0000   0.0000   0.2701
   7.800   1.0021   0.02927   0.01947  -0.0272  0.1125  1.0000  -3.4113   0.0000   0.0000   0.0000   0.2691
   7.900   1.0097   0.02985   0.02001  -0.0267  0.1072  1.0000  -3.4643   0.0000   0.0000   0.0000   0.2683
   8.000   1.0191   0.03100   0.02105  -0.0265  0.1025  1.0000  -3.5208   0.0000   0.0000   0.0000   0.2678
   8.100   1.0281   0.03166   0.02189  -0.0259  0.0995  1.0000  -3.5578   0.0000   0.0000   0.0000   0.2669
   8.200   1.0373   0.03245   0.02279  -0.0254  0.0964  1.0000  -3.5957   0.0000   0.0000   0.0000   0.2661
   8.300   1.0464   0.03327   0.02367  -0.0250  0.0936  1.0000  -3.6365   0.0000   0.0000   0.0000   0.2653
   8.400   1.0558   0.03415   0.02454  -0.0246  0.0911  1.0000  -3.7021   0.0000   0.0000   0.0000   0.2647
   8.500   1.0659   0.03527   0.02561  -0.0245  0.0888  1.0000  -3.7713   0.0000   0.0000   0.0000   0.2642
   8.600   1.0766   0.03702   0.02734  -0.0245  0.0868  1.0000  -3.8265   0.0000   0.0000   0.0000   0.2639
   8.700   1.0838   0.03792   0.02846  -0.0237  0.0857  1.0000  -3.8678   0.0000   0.0000   0.0000   0.2629
   8.800   1.0905   0.03891   0.02965  -0.0230  0.0844  1.0000  -3.9068   0.0000   0.0000   0.0000   0.2620
   8.900   1.0965   0.03987   0.03080  -0.0222  0.0827  1.0000  -3.9466   0.0000   0.0000   0.0000   0.2610
   9.000   1.1022   0.04077   0.03184  -0.0214  0.0806  1.0000  -3.9923   0.0000   0.0000   0.0000   0.2601
   9.100   1.1085   0.04154   0.03267  -0.0208  0.0783  1.0000  -4.0519   0.0000   0.0000   0.0000   0.2593
   9.200   1.1148   0.04226   0.03339  -0.0203  0.0759  1.0000  -4.1220   0.0000   0.0000   0.0000   0.2587
   9.300   1.1222   0.04349   0.03453  -0.0202  0.0736  1.0000  -4.1974   0.0000   0.0000   0.0000   0.2583
   9.400   1.1264   0.04535   0.03646  -0.0196  0.0722  1.0000  -4.2285   0.0000   0.0000   0.0000   0.2577
   9.500   1.1285   0.04633   0.03768  -0.0185  0.0716  1.0000  -4.2490   0.0000   0.0000   0.0000   0.2565
   9.600   1.1304   0.04754   0.03911  -0.0174  0.0711  1.0000  -4.2652   0.0000   0.0000   0.0000   0.2555
   9.700   1.1318   0.04884   0.04060  -0.0163  0.0706  1.0000  -4.2777   0.0000   0.0000   0.0000   0.2544
   9.800   1.1323   0.05019   0.04215  -0.0153  0.0702  1.0000  -4.2867   0.0000   0.0000   0.0000   0.2533
   9.900   1.1321   0.05159   0.04373  -0.0142  0.0699  1.0000  -4.2922   0.0000   0.0000   0.0000   0.2523
  10.000   1.1312   0.05303   0.04535  -0.0131  0.0696  1.0000  -4.2945   0.0000   0.0000   0.0000   0.2512
  10.100   1.1294   0.05450   0.04699  -0.0120  0.0694  1.0000  -4.2935   0.0000   0.0000   0.0000   0.2502
  10.200   1.1268   0.05600   0.04865  -0.0109  0.0692  1.0000  -4.2894   0.0000   0.0000   0.0000   0.2491
  10.300   1.1233   0.05751   0.05032  -0.0098  0.0691  1.0000  -4.2822   0.0000   0.0000   0.0000   0.2481
  10.400   1.1190   0.05904   0.05199  -0.0087  0.0690  1.0000  -4.2719   0.0000   0.0000   0.0000   0.2470
  10.500   1.1138   0.06058   0.05366  -0.0076  0.0690  1.0000  -4.2589   0.0000   0.0000   0.0000   0.2460
  10.600   1.1073   0.06203   0.05523  -0.0064  0.0691  1.0000  -4.2431   0.0000   0.0000   0.0000   0.2448
  10.700   1.1001   0.06351   0.05682  -0.0052  0.0691  1.0000  -4.2251   0.0000   0.0000   0.0000   0.2437
  10.800   1.0925   0.06505   0.05846  -0.0042  0.0692  1.0000  -4.2050   0.0000   0.0000   0.0000   0.2427
  10.900   1.0844   0.06665   0.06016  -0.0034  0.0693  1.0000  -4.1827   0.0000   0.0000   0.0000   0.2418
  11.000   1.0760   0.06833   0.06194  -0.0028  0.0694  1.0000  -4.1583   0.0000   0.0000   0.0000   0.2412
  11.100   1.0672   0.07010   0.06379  -0.0024  0.0696  1.0000  -4.1316   0.0000   0.0000   0.0000   0.2407
  11.200   1.0582   0.07197   0.06574  -0.0022  0.0697  1.0000  -4.1028   0.0000   0.0000   0.0000   0.2404
  11.300   1.0489   0.07394   0.06779  -0.0023  0.0699  1.0000  -4.0717   0.0000   0.0000   0.0000   0.2404
  11.400   1.0395   0.07603   0.06996  -0.0026  0.0701  1.0000  -4.0384   0.0000   0.0000   0.0000   0.2405
  11.500   1.0299   0.07824   0.07224  -0.0031  0.0703  1.0000  -4.0028   0.0000   0.0000   0.0000   0.2409
  11.600   1.0203   0.08059   0.07465  -0.0038  0.0705  1.0000  -3.9650   0.0000   0.0000   0.0000   0.2415
  11.700   1.0108   0.08305   0.07717  -0.0048  0.0708  1.0000  -3.9253   0.0000   0.0000   0.0000   0.2424
  11.800   1.0013   0.08565   0.07983  -0.0059  0.0710  1.0000  -3.8838   0.0000   0.0000   0.0000   0.2434
  11.900   0.9922   0.08837   0.08259  -0.0071  0.0713  1.0000  -3.8411   0.0000   0.0000   0.0000   0.2446
  12.000   0.9836   0.09119   0.08545  -0.0085  0.0716  1.0000  -3.7982   0.0000   0.0000   0.0000   0.2459
  12.100   0.9757   0.09407   0.08836  -0.0098  0.0718  1.0000  -3.7566   0.0000   0.0000   0.0000   0.2472
  12.200   0.9690   0.09696   0.09126  -0.0111  0.0721  1.0000  -3.7185   0.0000   0.0000   0.0000   0.2485
  12.300   0.9641   0.09978   0.09410  -0.0120  0.0724  1.0000  -3.6881   0.0000   0.0000   0.0000   0.2494
  12.400   0.8698   0.12419   0.11864  -0.0339  0.0834  1.0000  -2.7749   0.0000   0.0000   0.0000   0.2766
  12.500   0.8671   0.12698   0.12141  -0.0350  0.0842  1.0000  -2.7415   0.0000   0.0000   0.0000   0.2779
  12.600   0.8660   0.12941   0.12384  -0.0356  0.0849  1.0000  -2.7225   0.0000   0.0000   0.0000   0.2786
  12.700   0.8664   0.13150   0.12594  -0.0359  0.0856  1.0000  -2.7183   0.0000   0.0000   0.0000   0.2788
  12.800   0.8688   0.13321   0.12765  -0.0357  0.0862  1.0000  -2.7326   0.0000   0.0000   0.0000   0.2784
  12.900   0.8744   0.13438   0.12883  -0.0347  0.0867  1.0000  -2.7744   0.0000   0.0000   0.0000   0.2768
  13.200   0.8506   0.16496   0.15937  -0.0493  0.1564  1.0000  -2.0720   0.0000   0.0000   0.0000   0.2960
  13.300   0.8377   0.16638   0.16074  -0.0523  0.1558  1.0000  -1.9954   0.0000   0.0000   0.0000   0.3004
  13.400   0.8137   0.16686   0.16115  -0.0574  0.1529  1.0000  -1.8612   0.0000   0.0000   0.0000   0.3084
  13.500   0.8089   0.16821   0.16248  -0.0590  0.1500  1.0000  -1.8290   0.0000   0.0000   0.0000   0.3106
  13.600   0.8087   0.16975   0.16401  -0.0598  0.1479  1.0000  -1.8202   0.0000   0.0000   0.0000   0.3115
  13.700   0.8102   0.17131   0.16558  -0.0603  0.1460  1.0000  -1.8206   0.0000   0.0000   0.0000   0.3119
  13.800   0.8130   0.17288   0.16715  -0.0606  0.1442  1.0000  -1.8282   0.0000   0.0000   0.0000   0.3119
  13.900   0.8173   0.17448   0.16876  -0.0606  0.1427  1.0000  -1.8442   0.0000   0.0000   0.0000   0.3114
  14.000   0.8237   0.17622   0.17051  -0.0603  0.1412  1.0000  -1.8719   0.0000   0.0000   0.0000   0.3104
  14.100   0.8331   0.17823   0.17260  -0.0594  0.1399  1.0000  -1.9125   0.0000   0.0000   0.0000   0.3084
  14.200   0.8463   0.18086   0.17528  -0.0577  0.1387  1.0000  -1.9765   0.0000   0.0000   0.0000   0.3051
  14.300   0.8654   0.18588   0.18033  -0.0547  0.1376  1.0000  -2.0685   0.0000   0.0000   0.0000   0.3001
  14.400   0.8578   0.18711   0.18152  -0.0571  0.1373  1.0000  -2.0132   0.0000   0.0000   0.0000   0.3033
  14.500   0.8475   0.18786   0.18224  -0.0601  0.1368  1.0000  -1.9419   0.0000   0.0000   0.0000   0.3075
  14.600   0.8322   0.18764   0.18197  -0.0638  0.1354  1.0000  -1.8462   0.0000   0.0000   0.0000   0.3132
  14.700   0.8251   0.18819   0.18249  -0.0661  0.1328  1.0000  -1.7960   0.0000   0.0000   0.0000   0.3165
  14.800   0.8249   0.18953   0.18382  -0.0672  0.1306  1.0000  -1.7823   0.0000   0.0000   0.0000   0.3177
  14.900   0.8264   0.19099   0.18528  -0.0679  0.1286  1.0000  -1.7796   0.0000   0.0000   0.0000   0.3182
  15.000   0.8291   0.19248   0.18677  -0.0683  0.1268  1.0000  -1.7841   0.0000   0.0000   0.0000   0.3184


