xflr5 v6.55

 Calculated polar for: NACA 2410

 1 1 Reynolds number fixed          Mach number fixed         

 xtrf =   1.000 (top)        1.000 (bottom)
 Mach =   0.200     Re =     0.175 e 6     Ncrit =   9.000

  alpha     CL        CD       CDp       Cm    Top Xtr Bot Xtr   Cpmin    Chinge    XCp    
 ------- -------- --------- --------- -------- ------- ------- -------- --------- ---------
   0.100   0.3052   0.01015   0.00471  -0.0677  0.8853  1.0000  -0.5392   0.0000   0.0000   0.0000   0.4709
   0.200   0.3179   0.01008   0.00460  -0.0677  0.8801  1.0000  -0.5498   0.0000   0.0000   0.0000   0.4620
   0.300   0.3297   0.01003   0.00452  -0.0676  0.8745  1.0000  -0.5599   0.0000   0.0000   0.0000   0.4539
   0.400   0.3382   0.01002   0.00450  -0.0669  0.8659  1.0000  -0.5681   0.0000   0.0000   0.0000   0.4466
   0.500   0.3489   0.00998   0.00442  -0.0666  0.8592  1.0000  -0.5783   0.0000   0.0000   0.0000   0.4395
   0.600   0.3608   0.00992   0.00432  -0.0664  0.8535  1.0000  -0.5893   0.0000   0.0000   0.0000   0.4326
   0.700   0.3706   0.00992   0.00429  -0.0659  0.8461  1.0000  -0.5990   0.0000   0.0000   0.0000   0.4264
   0.800   0.3799   0.00992   0.00427  -0.0654  0.8378  1.0000  -0.6090   0.0000   0.0000   0.0000   0.4205
   0.900   0.3906   0.00989   0.00420  -0.0650  0.8308  1.0000  -0.6201   0.0000   0.0000   0.0000   0.4147
   1.000   0.4022   0.00986   0.00412  -0.0648  0.8251  1.0000  -0.6319   0.0000   0.0000   0.0000   0.4093
   1.100   0.4109   0.00989   0.00414  -0.0642  0.8159  1.0000  -0.6423   0.0000   0.0000   0.0000   0.4043
   1.200   0.4208   0.00990   0.00412  -0.0637  0.8078  1.0000  -0.6538   0.0000   0.0000   0.0000   0.3994
   1.300   0.4317   0.00989   0.00405  -0.0634  0.8010  1.0000  -0.6665   0.0000   0.0000   0.0000   0.3947
   1.400   0.4419   0.00991   0.00405  -0.0630  0.7933  1.0000  -0.6792   0.0000   0.0000   0.0000   0.3904
   1.500   0.4514   0.00994   0.00406  -0.0625  0.7843  1.0000  -0.6918   0.0000   0.0000   0.0000   0.3862
   1.600   0.4617   0.00995   0.00403  -0.0621  0.7767  1.0000  -0.7060   0.0000   0.0000   0.0000   0.3821
   1.800   0.4821   0.01003   0.00404  -0.0613  0.7608  1.0000  -0.7367   0.0000   0.0000   0.0000   0.3747
   1.900   0.4921   0.01006   0.00408  -0.0608  0.7522  1.0000  -0.7536   0.0000   0.0000   0.0000   0.3712
   2.000   0.5027   0.01010   0.00405  -0.0605  0.7449  1.0000  -0.7731   0.0000   0.0000   0.0000   0.3677
   2.100   0.5129   0.01015   0.00407  -0.0601  0.7370  1.0000  -0.7937   0.0000   0.0000   0.0000   0.3646
   2.200   0.5227   0.01020   0.00412  -0.0597  0.7281  1.0000  -0.8152   0.0000   0.0000   0.0000   0.3615
   2.300   0.5329   0.01025   0.00412  -0.0593  0.7200  1.0000  -0.8395   0.0000   0.0000   0.0000   0.3585
   2.400   0.5437   0.01032   0.00411  -0.0590  0.7130  1.0000  -0.8656   0.0000   0.0000   0.0000   0.3556
   2.500   0.5534   0.01038   0.00418  -0.0586  0.7041  1.0000  -0.8926   0.0000   0.0000   0.0000   0.3530
   2.600   0.5635   0.01043   0.00421  -0.0582  0.6955  1.0000  -0.9205   0.0000   0.0000   0.0000   0.3503
   2.700   0.5739   0.01050   0.00422  -0.0579  0.6879  1.0000  -0.9507   0.0000   0.0000   0.0000   0.3477
   2.800   0.5842   0.01059   0.00426  -0.0575  0.6802  1.0000  -0.9838   0.0000   0.0000   0.0000   0.3453
   2.900   0.5942   0.01064   0.00433  -0.0572  0.6714  1.0000  -1.0164   0.0000   0.0000   0.0000   0.3430
   3.000   0.6044   0.01071   0.00437  -0.0568  0.6632  1.0000  -1.0499   0.0000   0.0000   0.0000   0.3406
   3.100   0.6148   0.01081   0.00438  -0.0564  0.6557  1.0000  -1.0843   0.0000   0.0000   0.0000   0.3384
   3.200   0.6249   0.01088   0.00447  -0.0561  0.6473  1.0000  -1.1217   0.0000   0.0000   0.0000   0.3363
   3.300   0.6349   0.01095   0.00453  -0.0557  0.6385  1.0000  -1.1617   0.0000   0.0000   0.0000   0.3342
   3.400   0.6452   0.01103   0.00456  -0.0554  0.6304  1.0000  -1.2027   0.0000   0.0000   0.0000   0.3322
   3.500   0.6555   0.01114   0.00461  -0.0550  0.6226  1.0000  -1.2440   0.0000   0.0000   0.0000   0.3302
   3.600   0.6654   0.01120   0.00470  -0.0547  0.6134  1.0000  -1.2849   0.0000   0.0000   0.0000   0.3283
   3.700   0.6755   0.01128   0.00474  -0.0543  0.6045  1.0000  -1.3266   0.0000   0.0000   0.0000   0.3265
   3.800   0.6857   0.01140   0.00483  -0.0539  0.5963  1.0000  -1.3701   0.0000   0.0000   0.0000   0.3246
   3.900   0.6957   0.01146   0.00493  -0.0535  0.5870  1.0000  -1.4129   0.0000   0.0000   0.0000   0.3229
   4.000   0.7056   0.01154   0.00499  -0.0531  0.5774  1.0000  -1.4632   0.0000   0.0000   0.0000   0.3212
   4.100   0.7156   0.01165   0.00503  -0.0527  0.5685  1.0000  -1.5146   0.0000   0.0000   0.0000   0.3194
   4.200   0.7256   0.01173   0.00512  -0.0524  0.5591  1.0000  -1.5660   0.0000   0.0000   0.0000   0.3178
   4.300   0.7355   0.01181   0.00520  -0.0520  0.5489  1.0000  -1.6181   0.0000   0.0000   0.0000   0.3162
   4.400   0.7453   0.01193   0.00524  -0.0515  0.5395  1.0000  -1.6707   0.0000   0.0000   0.0000   0.3146
   4.500   0.7553   0.01202   0.00534  -0.0512  0.5298  1.0000  -1.7238   0.0000   0.0000   0.0000   0.3131
   4.600   0.7651   0.01210   0.00542  -0.0508  0.5191  1.0000  -1.7772   0.0000   0.0000   0.0000   0.3117
   4.700   0.7748   0.01224   0.00548  -0.0503  0.5092  1.0000  -1.8310   0.0000   0.0000   0.0000   0.3101
   4.800   0.7847   0.01232   0.00559  -0.0499  0.4984  1.0000  -1.8854   0.0000   0.0000   0.0000   0.3088
   4.900   0.7943   0.01242   0.00567  -0.0495  0.4873  1.0000  -1.9399   0.0000   0.0000   0.0000   0.3074
   5.000   0.8038   0.01257   0.00575  -0.0491  0.4768  1.0000  -1.9947   0.0000   0.0000   0.0000   0.3059
   5.100   0.8136   0.01265   0.00586  -0.0487  0.4645  1.0000  -2.0518   0.0000   0.0000   0.0000   0.3046
   5.200   0.8228   0.01280   0.00593  -0.0482  0.4525  1.0000  -2.1177   0.0000   0.0000   0.0000   0.3033
   5.300   0.8325   0.01289   0.00605  -0.0478  0.4397  1.0000  -2.1855   0.0000   0.0000   0.0000   0.3020
   5.400   0.8416   0.01304   0.00614  -0.0473  0.4262  1.0000  -2.2522   0.0000   0.0000   0.0000   0.3007
   5.500   0.8510   0.01316   0.00626  -0.0468  0.4118  1.0000  -2.3204   0.0000   0.0000   0.0000   0.2994
   5.600   0.8598   0.01334   0.00642  -0.0463  0.3964  1.0000  -2.3832   0.0000   0.0000   0.0000   0.2981
   5.700   0.8691   0.01347   0.00655  -0.0458  0.3792  1.0000  -2.4484   0.0000   0.0000   0.0000   0.2969
   5.800   0.8777   0.01366   0.00668  -0.0453  0.3613  1.0000  -2.5144   0.0000   0.0000   0.0000   0.2957
   5.900   0.8857   0.01390   0.00681  -0.0446  0.3404  1.0000  -2.5795   0.0000   0.0000   0.0000   0.2944
   6.000   0.8936   0.01415   0.00697  -0.0440  0.3166  1.0000  -2.6446   0.0000   0.0000   0.0000   0.2931
   6.100   0.9010   0.01446   0.00716  -0.0434  0.2904  1.0000  -2.7082   0.0000   0.0000   0.0000   0.2919
   6.200   0.9083   0.01481   0.00738  -0.0427  0.2615  1.0000  -2.7711   0.0000   0.0000   0.0000   0.2907
   6.300   0.9150   0.01523   0.00765  -0.0420  0.2307  1.0000  -2.8317   0.0000   0.0000   0.0000   0.2894
   6.400   0.9210   0.01573   0.00796  -0.0412  0.2006  1.0000  -2.8893   0.0000   0.0000   0.0000   0.2882
   6.500   0.9270   0.01627   0.00833  -0.0404  0.1729  1.0000  -2.9452   0.0000   0.0000   0.0000   0.2869
   6.600   0.9331   0.01682   0.00873  -0.0396  0.1497  1.0000  -2.9999   0.0000   0.0000   0.0000   0.2857
   6.700   0.9391   0.01738   0.00916  -0.0388  0.1319  1.0000  -3.0533   0.0000   0.0000   0.0000   0.2845
   6.800   0.9448   0.01796   0.00962  -0.0380  0.1186  1.0000  -3.1054   0.0000   0.0000   0.0000   0.2833
   6.900   0.9521   0.01840   0.01002  -0.0373  0.1078  1.0000  -3.1631   0.0000   0.0000   0.0000   0.2821
   7.000   0.9585   0.01892   0.01048  -0.0366  0.0995  1.0000  -3.2164   0.0000   0.0000   0.0000   0.2810
   7.100   0.9660   0.01932   0.01087  -0.0360  0.0923  1.0000  -3.2764   0.0000   0.0000   0.0000   0.2799
   7.200   0.9710   0.01997   0.01142  -0.0350  0.0867  1.0000  -3.3244   0.0000   0.0000   0.0000   0.2787
   7.300   0.9793   0.02031   0.01183  -0.0344  0.0822  1.0000  -3.3824   0.0000   0.0000   0.0000   0.2777
   7.400   0.9868   0.02073   0.01225  -0.0338  0.0781  1.0000  -3.4396   0.0000   0.0000   0.0000   0.2766
   7.500   0.9927   0.02130   0.01277  -0.0330  0.0747  1.0000  -3.4918   0.0000   0.0000   0.0000   0.2755
   7.600   0.9983   0.02199   0.01343  -0.0321  0.0717  1.0000  -3.5349   0.0000   0.0000   0.0000   0.2743
   7.700   1.0065   0.02238   0.01389  -0.0315  0.0691  1.0000  -3.5895   0.0000   0.0000   0.0000   0.2733
   7.800   1.0142   0.02282   0.01442  -0.0309  0.0666  1.0000  -3.6457   0.0000   0.0000   0.0000   0.2723
   7.900   1.0217   0.02329   0.01488  -0.0302  0.0642  1.0000  -3.7023   0.0000   0.0000   0.0000   0.2714
   8.000   1.0285   0.02381   0.01539  -0.0296  0.0620  1.0000  -3.7586   0.0000   0.0000   0.0000   0.2704
   8.100   1.0340   0.02481   0.01632  -0.0288  0.0595  1.0000  -3.7992   0.0000   0.0000   0.0000   0.2694
   8.200   1.0423   0.02521   0.01679  -0.0283  0.0578  1.0000  -3.8598   0.0000   0.0000   0.0000   0.2686
   8.300   1.0505   0.02555   0.01721  -0.0277  0.0556  1.0000  -3.9384   0.0000   0.0000   0.0000   0.2677
   8.400   1.0583   0.02594   0.01764  -0.0272  0.0535  1.0000  -4.0180   0.0000   0.0000   0.0000   0.2669
   8.500   1.0658   0.02638   0.01809  -0.0266  0.0516  1.0000  -4.0979   0.0000   0.0000   0.0000   0.2660
   8.600   1.0731   0.02693   0.01863  -0.0260  0.0502  1.0000  -4.1750   0.0000   0.0000   0.0000   0.2652
   8.700   1.0804   0.02764   0.01933  -0.0255  0.0489  1.0000  -4.2488   0.0000   0.0000   0.0000   0.2645
   8.800   1.0882   0.02896   0.02064  -0.0251  0.0475  1.0000  -4.3077   0.0000   0.0000   0.0000   0.2638
   8.900   1.0964   0.02971   0.02147  -0.0246  0.0466  1.0000  -4.3736   0.0000   0.0000   0.0000   0.2631
   9.000   1.1044   0.03027   0.02212  -0.0240  0.0459  1.0000  -4.4426   0.0000   0.0000   0.0000   0.2623
   9.100   1.1123   0.03091   0.02287  -0.0234  0.0450  1.0000  -4.5089   0.0000   0.0000   0.0000   0.2615
   9.200   1.1200   0.03162   0.02367  -0.0229  0.0441  1.0000  -4.5730   0.0000   0.0000   0.0000   0.2607
   9.300   1.1275   0.03237   0.02452  -0.0223  0.0432  1.0000  -4.6355   0.0000   0.0000   0.0000   0.2599
   9.400   1.1347   0.03316   0.02539  -0.0217  0.0424  1.0000  -4.6967   0.0000   0.0000   0.0000   0.2591
   9.500   1.1417   0.03396   0.02628  -0.0210  0.0417  1.0000  -4.7571   0.0000   0.0000   0.0000   0.2583
   9.600   1.1482   0.03479   0.02720  -0.0204  0.0410  1.0000  -4.8158   0.0000   0.0000   0.0000   0.2576
   9.700   1.1543   0.03565   0.02814  -0.0197  0.0404  1.0000  -4.8728   0.0000   0.0000   0.0000   0.2568
   9.800   1.1600   0.03653   0.02911  -0.0191  0.0398  1.0000  -4.9284   0.0000   0.0000   0.0000   0.2560
   9.900   1.1654   0.03745   0.03011  -0.0184  0.0394  1.0000  -4.9822   0.0000   0.0000   0.0000   0.2552
  10.000   1.1704   0.03843   0.03117  -0.0176  0.0389  1.0000  -5.0333   0.0000   0.0000   0.0000   0.2544
  10.100   1.1750   0.03946   0.03234  -0.0169  0.0386  1.0000  -5.0848   0.0000   0.0000   0.0000   0.2536
  10.200   1.1790   0.04057   0.03355  -0.0161  0.0383  1.0000  -5.1290   0.0000   0.0000   0.0000   0.2527
  10.300   1.1823   0.04174   0.03481  -0.0153  0.0380  1.0000  -5.1686   0.0000   0.0000   0.0000   0.2519
  10.400   1.1850   0.04299   0.03615  -0.0145  0.0377  1.0000  -5.2063   0.0000   0.0000   0.0000   0.2511
  10.500   1.1866   0.04444   0.03769  -0.0137  0.0373  1.0000  -5.2353   0.0000   0.0000   0.0000   0.2503
  10.600   1.1862   0.04616   0.03953  -0.0128  0.0369  1.0000  -5.2471   0.0000   0.0000   0.0000   0.2494
  10.700   1.1833   0.04814   0.04165  -0.0118  0.0366  1.0000  -5.2383   0.0000   0.0000   0.0000   0.2484
  10.900   1.1742   0.05082   0.04459  -0.0090  0.0362  1.0000  -5.2308   0.0000   0.0000   0.0000   0.2459
  11.000   1.1700   0.05148   0.04536  -0.0074  0.0360  1.0000  -5.2455   0.0000   0.0000   0.0000   0.2445
  11.100   1.1656   0.05227   0.04626  -0.0060  0.0358  1.0000  -5.2559   0.0000   0.0000   0.0000   0.2432
  11.200   1.1608   0.05318   0.04729  -0.0048  0.0356  1.0000  -5.2620   0.0000   0.0000   0.0000   0.2420
  11.300   1.1557   0.05422   0.04845  -0.0037  0.0354  1.0000  -5.2641   0.0000   0.0000   0.0000   0.2409
  11.400   1.1502   0.05537   0.04971  -0.0028  0.0352  1.0000  -5.2624   0.0000   0.0000   0.0000   0.2400
  11.500   1.1443   0.05663   0.05108  -0.0021  0.0350  1.0000  -5.2571   0.0000   0.0000   0.0000   0.2392
  11.600   1.1381   0.05801   0.05257  -0.0015  0.0348  1.0000  -5.2483   0.0000   0.0000   0.0000   0.2386
  11.700   1.1315   0.05949   0.05415  -0.0011  0.0347  1.0000  -5.2359   0.0000   0.0000   0.0000   0.2380
  11.800   1.1246   0.06108   0.05585  -0.0008  0.0346  1.0000  -5.2202   0.0000   0.0000   0.0000   0.2377
  11.900   1.1175   0.06279   0.05766  -0.0008  0.0345  1.0000  -5.2013   0.0000   0.0000   0.0000   0.2375
  12.000   1.1100   0.06463   0.05959  -0.0009  0.0344  1.0000  -5.1789   0.0000   0.0000   0.0000   0.2375
  12.100   1.1021   0.06657   0.06163  -0.0013  0.0344  1.0000  -5.1529   0.0000   0.0000   0.0000   0.2376
  12.200   1.0939   0.06864   0.06379  -0.0018  0.0344  1.0000  -5.1233   0.0000   0.0000   0.0000   0.2379
  12.300   1.0855   0.07085   0.06609  -0.0025  0.0344  1.0000  -5.0900   0.0000   0.0000   0.0000   0.2384
  12.400   1.0767   0.07321   0.06853  -0.0034  0.0344  1.0000  -5.0528   0.0000   0.0000   0.0000   0.2391
  12.500   1.0677   0.07571   0.07111  -0.0045  0.0345  1.0000  -5.0118   0.0000   0.0000   0.0000   0.2400
  12.600   1.0584   0.07835   0.07383  -0.0059  0.0346  1.0000  -4.9668   0.0000   0.0000   0.0000   0.2412
  12.700   1.0488   0.08113   0.07668  -0.0073  0.0347  1.0000  -4.9177   0.0000   0.0000   0.0000   0.2425
  12.800   1.0390   0.08406   0.07968  -0.0090  0.0348  1.0000  -4.8643   0.0000   0.0000   0.0000   0.2440
  12.900   1.0290   0.08716   0.08284  -0.0108  0.0350  1.0000  -4.8065   0.0000   0.0000   0.0000   0.2457
  13.000   1.0189   0.09041   0.08615  -0.0127  0.0352  1.0000  -4.7440   0.0000   0.0000   0.0000   0.2475
  13.100   1.0087   0.09381   0.08961  -0.0148  0.0354  1.0000  -4.6771   0.0000   0.0000   0.0000   0.2496
  13.200   0.9984   0.09734   0.09319  -0.0169  0.0356  1.0000  -4.6056   0.0000   0.0000   0.0000   0.2517
  13.300   0.9882   0.10098   0.09687  -0.0190  0.0358  1.0000  -4.5301   0.0000   0.0000   0.0000   0.2540
  13.400   0.9782   0.10469   0.10060  -0.0211  0.0361  1.0000  -4.4513   0.0000   0.0000   0.0000   0.2562
  13.500   0.9688   0.10837   0.10431  -0.0230  0.0363  1.0000  -4.3717   0.0000   0.0000   0.0000   0.2582
  13.700   0.2943   0.03482   0.03166   0.0084  0.0913  1.0000  -0.8687   0.0000   0.0000   0.0000   0.2236
  13.800   0.3032   0.03512   0.03196   0.0090  0.0895  1.0000  -0.9197   0.0000   0.0000   0.0000   0.2217
  13.900   0.3092   0.03597   0.03281   0.0090  0.0889  1.0000  -0.9408   0.0000   0.0000   0.0000   0.2220
  14.000   0.3136   0.03708   0.03392   0.0086  0.0886  1.0000  -0.9454   0.0000   0.0000   0.0000   0.2234
  14.100   0.3171   0.03832   0.03516   0.0081  0.0884  1.0000  -0.9439   0.0000   0.0000   0.0000   0.2252
  14.200   0.3212   0.03958   0.03642   0.0077  0.0881  1.0000  -0.9556   0.0000   0.0000   0.0000   0.2267
  14.300   0.8579   0.16839   0.16448  -0.0519  0.0721  1.0000  -2.3687   0.0000   0.0000   0.0000   0.2964
  14.400   0.8519   0.17137   0.16744  -0.0550  0.0717  1.0000  -2.2780   0.0000   0.0000   0.0000   0.3005
  14.500   0.8435   0.17468   0.17072  -0.0592  0.0704  1.0000  -2.1515   0.0000   0.0000   0.0000   0.3061
  14.600   0.8397   0.17719   0.17322  -0.0616  0.0684  1.0000  -2.0857   0.0000   0.0000   0.0000   0.3093
  14.700   0.8398   0.17895   0.17497  -0.0628  0.0664  1.0000  -2.0704   0.0000   0.0000   0.0000   0.3106
  14.800   0.8420   0.18031   0.17634  -0.0633  0.0647  1.0000  -2.0800   0.0000   0.0000   0.0000   0.3109
  14.900   0.8448   0.18164   0.17767  -0.0637  0.0636  1.0000  -2.0950   0.0000   0.0000   0.0000   0.3109
  15.000   0.8481   0.18293   0.17896  -0.0639  0.0627  1.0000  -2.1136   0.0000   0.0000   0.0000   0.3107


