xflr5 v6.55

 Calculated polar for: NACA 2410

 1 1 Reynolds number fixed          Mach number fixed         

 xtrf =   1.000 (top)        1.000 (bottom)
 Mach =   0.200     Re =     0.055 e 6     Ncrit =   9.000

  alpha     CL        CD       CDp       Cm    Top Xtr Bot Xtr   Cpmin    Chinge    XCp    
 ------- -------- --------- --------- -------- ------- ------- -------- --------- ---------
   0.000   0.0005   0.02028   0.01080  -0.0216  1.0000  1.0000  -0.5908   0.0000   0.0000   0.0000  45.7750
   0.100   0.0079   0.02052   0.01099  -0.0216  1.0000  1.0000  -0.5662   0.0000   0.0000   0.0000   2.9824
   0.200   0.0153   0.02078   0.01120  -0.0215  1.0000  1.0000  -0.5439   0.0000   0.0000   0.0000   1.6572
   0.300   0.0227   0.02104   0.01143  -0.0215  1.0000  1.0000  -0.5233   0.0000   0.0000   0.0000   1.1982
   0.400   0.0300   0.02132   0.01166  -0.0215  1.0000  1.0000  -0.5029   0.0000   0.0000   0.0000   0.9656
   0.500   0.0466   0.02168   0.01197  -0.0233  0.9963  1.0000  -0.4714   0.0000   0.0000   0.0000   0.7475
   0.600   0.0702   0.02210   0.01235  -0.0262  0.9901  1.0000  -0.4316   0.0000   0.0000   0.0000   0.6210
   0.700   0.0930   0.02250   0.01270  -0.0290  0.9835  1.0000  -0.4140   0.0000   0.0000   0.0000   0.5592
   0.800   0.1157   0.02290   0.01306  -0.0316  0.9773  1.0000  -0.4282   0.0000   0.0000   0.0000   0.5214
   0.900   0.1356   0.02322   0.01336  -0.0338  0.9699  1.0000  -0.4409   0.0000   0.0000   0.0000   0.4972
   1.000   0.1612   0.02364   0.01374  -0.0370  0.9643  1.0000  -0.4577   0.0000   0.0000   0.0000   0.4770
   1.100   0.1766   0.02390   0.01399  -0.0382  0.9561  1.0000  -0.4686   0.0000   0.0000   0.0000   0.4642
   1.200   0.1985   0.02421   0.01428  -0.0406  0.9491  1.0000  -0.4838   0.0000   0.0000   0.0000   0.4523
   1.300   0.2229   0.02456   0.01461  -0.0434  0.9434  1.0000  -0.5009   0.0000   0.0000   0.0000   0.4424
   1.400   0.2347   0.02478   0.01483  -0.0440  0.9346  1.0000  -0.5106   0.0000   0.0000   0.0000   0.4349
   1.500   0.2568   0.02505   0.01509  -0.0463  0.9280  1.0000  -0.5273   0.0000   0.0000   0.0000   0.4277
   1.600   0.2808   0.02534   0.01537  -0.0489  0.9223  1.0000  -0.5459   0.0000   0.0000   0.0000   0.4214
   1.700   0.2898   0.02555   0.01559  -0.0488  0.9130  1.0000  -0.5548   0.0000   0.0000   0.0000   0.4158
   1.800   0.3110   0.02576   0.01581  -0.0508  0.9061  1.0000  -0.5725   0.0000   0.0000   0.0000   0.4107
   1.900   0.3386   0.02596   0.01603  -0.0538  0.9011  1.0000  -0.5962   0.0000   0.0000   0.0000   0.4063
   2.000   0.3427   0.02623   0.01629  -0.0530  0.8916  1.0000  -0.6026   0.0000   0.0000   0.0000   0.4017
   2.100   0.3606   0.02640   0.01648  -0.0543  0.8843  1.0000  -0.6205   0.0000   0.0000   0.0000   0.3976
   2.200   0.3868   0.02651   0.01662  -0.0569  0.8788  1.0000  -0.6460   0.0000   0.0000   0.0000   0.3941
   2.300   0.3972   0.02676   0.01688  -0.0569  0.8707  1.0000  -0.6599   0.0000   0.0000   0.0000   0.3904
   2.400   0.4093   0.02695   0.01710  -0.0572  0.8623  1.0000  -0.6758   0.0000   0.0000   0.0000   0.3868
   2.500   0.4323   0.02701   0.01720  -0.0592  0.8563  1.0000  -0.7037   0.0000   0.0000   0.0000   0.3838
   2.600   0.4622   0.02696   0.01726  -0.0621  0.8518  1.0000  -0.7422   0.0000   0.0000   0.0000   0.3813
   2.700   0.4596   0.02740   0.01769  -0.0601  0.8413  1.0000  -0.7474   0.0000   0.0000   0.0000   0.3776
   2.800   0.4773   0.02747   0.01780  -0.0611  0.8340  1.0000  -0.7763   0.0000   0.0000   0.0000   0.3748
   2.900   0.5028   0.02735   0.01774  -0.0631  0.8286  1.0000  -0.8188   0.0000   0.0000   0.0000   0.3722
   3.000   0.5214   0.02739   0.01781  -0.0640  0.8227  1.0000  -0.8559   0.0000   0.0000   0.0000   0.3694
   3.100   0.5228   0.02781   0.01825  -0.0627  0.8125  1.0000  -0.8691   0.0000   0.0000   0.0000   0.3665
   3.200   0.5414   0.02776   0.01824  -0.0635  0.8057  1.0000  -0.9085   0.0000   0.0000   0.0000   0.3638
   3.300   0.5654   0.02751   0.01806  -0.0648  0.8005  1.0000  -0.9623   0.0000   0.0000   0.0000   0.3612
   3.400   0.5745   0.02777   0.01834  -0.0644  0.7925  1.0000  -0.9917   0.0000   0.0000   0.0000   0.3586
   3.500   0.5818   0.02803   0.01864  -0.0638  0.7833  1.0000  -1.0185   0.0000   0.0000   0.0000   0.3560
   3.600   0.6011   0.02785   0.01851  -0.0644  0.7767  1.0000  -1.0673   0.0000   0.0000   0.0000   0.3534
   3.700   0.6246   0.02747   0.01820  -0.0653  0.7715  1.0000  -1.1318   0.0000   0.0000   0.0000   0.3508
   3.800   0.6270   0.02797   0.01872  -0.0641  0.7617  1.0000  -1.1537   0.0000   0.0000   0.0000   0.3484
   3.900   0.6387   0.02803   0.01883  -0.0638  0.7531  1.0000  -1.1962   0.0000   0.0000   0.0000   0.3460
   4.000   0.6585   0.02769   0.01856  -0.0641  0.7466  1.0000  -1.2575   0.0000   0.0000   0.0000   0.3434
   4.100   0.6802   0.02727   0.01828  -0.0644  0.7409  1.0000  -1.3246   0.0000   0.0000   0.0000   0.3407
   4.200   0.6789   0.02795   0.01899  -0.0630  0.7292  1.0000  -1.3386   0.0000   0.0000   0.0000   0.3387
   4.300   0.6942   0.02774   0.01885  -0.0627  0.7211  1.0000  -1.3919   0.0000   0.0000   0.0000   0.3362
   4.400   0.7159   0.02717   0.01832  -0.0628  0.7146  1.0000  -1.4707   0.0000   0.0000   0.0000   0.3335
   4.500   0.7201   0.02760   0.01880  -0.0617  0.7041  1.0000  -1.5038   0.0000   0.0000   0.0000   0.3314
   4.600   0.7313   0.02755   0.01880  -0.0610  0.6942  1.0000  -1.5579   0.0000   0.0000   0.0000   0.3290
   4.700   0.7514   0.02695   0.01823  -0.0607  0.6865  1.0000  -1.6392   0.0000   0.0000   0.0000   0.3263
   4.800   0.7585   0.02718   0.01852  -0.0597  0.6759  1.0000  -1.6822   0.0000   0.0000   0.0000   0.3242
   4.900   0.7690   0.02712   0.01850  -0.0589  0.6648  1.0000  -1.7365   0.0000   0.0000   0.0000   0.3219
   5.000   0.7888   0.02642   0.01781  -0.0583  0.6559  1.0000  -1.8210   0.0000   0.0000   0.0000   0.3191
   5.100   0.7930   0.02680   0.01825  -0.0571  0.6432  1.0000  -1.8566   0.0000   0.0000   0.0000   0.3172
   5.200   0.8069   0.02642   0.01789  -0.0561  0.6315  1.0000  -1.9243   0.0000   0.0000   0.0000   0.3147
   5.300   0.8195   0.02619   0.01767  -0.0551  0.6199  1.0000  -1.9884   0.0000   0.0000   0.0000   0.3123
   5.400   0.8279   0.02618   0.01770  -0.0540  0.6059  1.0000  -2.0393   0.0000   0.0000   0.0000   0.3101
   5.500   0.8434   0.02569   0.01715  -0.0530  0.5934  1.0000  -2.1223   0.0000   0.0000   0.0000   0.3076
   5.600   0.8492   0.02583   0.01736  -0.0517  0.5779  1.0000  -2.1744   0.0000   0.0000   0.0000   0.3056
   5.700   0.8633   0.02541   0.01686  -0.0506  0.5638  1.0000  -2.2616   0.0000   0.0000   0.0000   0.3032
   5.800   0.8696   0.02548   0.01709  -0.0492  0.5469  1.0000  -2.3133   0.0000   0.0000   0.0000   0.3011
   5.900   0.8802   0.02529   0.01685  -0.0480  0.5305  1.0000  -2.3846   0.0000   0.0000   0.0000   0.2989
   6.000   0.8895   0.02512   0.01664  -0.0467  0.5122  1.0000  -2.4536   0.0000   0.0000   0.0000   0.2967
   6.100   0.8962   0.02517   0.01671  -0.0453  0.4929  1.0000  -2.5119   0.0000   0.0000   0.0000   0.2947
   6.200   0.9049   0.02507   0.01650  -0.0439  0.4726  1.0000  -2.5802   0.0000   0.0000   0.0000   0.2925
   6.300   0.9133   0.02496   0.01624  -0.0424  0.4501  1.0000  -2.6484   0.0000   0.0000   0.0000   0.2903
   6.400   0.9185   0.02506   0.01631  -0.0408  0.4253  1.0000  -2.7009   0.0000   0.0000   0.0000   0.2882
   6.500   0.9234   0.02521   0.01635  -0.0392  0.3983  1.0000  -2.7521   0.0000   0.0000   0.0000   0.2861
   6.600   0.9279   0.02544   0.01640  -0.0375  0.3695  1.0000  -2.8007   0.0000   0.0000   0.0000   0.2839
   6.700   0.9316   0.02583   0.01656  -0.0359  0.3397  1.0000  -2.8435   0.0000   0.0000   0.0000   0.2818
   6.800   0.9351   0.02639   0.01696  -0.0343  0.3097  1.0000  -2.8799   0.0000   0.0000   0.0000   0.2799
   6.900   0.9389   0.02704   0.01740  -0.0329  0.2826  1.0000  -2.9163   0.0000   0.0000   0.0000   0.2781
   7.000   0.9432   0.02776   0.01791  -0.0316  0.2591  1.0000  -2.9535   0.0000   0.0000   0.0000   0.2765
   7.100   0.9486   0.02855   0.01847  -0.0306  0.2393  1.0000  -2.9932   0.0000   0.0000   0.0000   0.2751
   7.200   0.9554   0.02937   0.01917  -0.0297  0.2224  1.0000  -3.0316   0.0000   0.0000   0.0000   0.2738
   7.300   0.9629   0.03027   0.02005  -0.0289  0.2079  1.0000  -3.0668   0.0000   0.0000   0.0000   0.2727
   7.400   0.9710   0.03118   0.02074  -0.0284  0.1957  1.0000  -3.1134   0.0000   0.0000   0.0000   0.2717
   7.500   0.9776   0.03190   0.02153  -0.0275  0.1842  1.0000  -3.1493   0.0000   0.0000   0.0000   0.2706
   7.600   0.9861   0.03283   0.02227  -0.0271  0.1744  1.0000  -3.1980   0.0000   0.0000   0.0000   0.2698
   7.700   0.9937   0.03364   0.02322  -0.0264  0.1661  1.0000  -3.2308   0.0000   0.0000   0.0000   0.2687
   7.800   1.0041   0.03461   0.02405  -0.0261  0.1592  1.0000  -3.2792   0.0000   0.0000   0.0000   0.2681
   7.900   1.0146   0.03586   0.02532  -0.0258  0.1538  1.0000  -3.3139   0.0000   0.0000   0.0000   0.2674
   8.000   1.0230   0.03689   0.02653  -0.0252  0.1491  1.0000  -3.3389   0.0000   0.0000   0.0000   0.2665
   8.100   1.0315   0.03786   0.02766  -0.0246  0.1443  1.0000  -3.3748   0.0000   0.0000   0.0000   0.2657
   8.200   1.0418   0.03897   0.02860  -0.0245  0.1388  1.0000  -3.4293   0.0000   0.0000   0.0000   0.2652
   8.300   1.0479   0.04011   0.02989  -0.0238  0.1348  1.0000  -3.4511   0.0000   0.0000   0.0000   0.2643
   8.400   1.0530   0.04100   0.03098  -0.0229  0.1304  1.0000  -3.4729   0.0000   0.0000   0.0000   0.2633
   8.500   1.0598   0.04185   0.03189  -0.0223  0.1260  1.0000  -3.5164   0.0000   0.0000   0.0000   0.2624
   8.600   1.0680   0.04289   0.03289  -0.0220  0.1224  1.0000  -3.5787   0.0000   0.0000   0.0000   0.2618
   8.700   1.0783   0.04476   0.03467  -0.0220  0.1198  1.0000  -3.6362   0.0000   0.0000   0.0000   0.2616
   8.800   1.0821   0.04603   0.03618  -0.0210  0.1185  1.0000  -3.6549   0.0000   0.0000   0.0000   0.2605
   8.900   1.0853   0.04735   0.03776  -0.0200  0.1174  1.0000  -3.6703   0.0000   0.0000   0.0000   0.2595
   9.000   1.0880   0.04876   0.03941  -0.0191  0.1163  1.0000  -3.6836   0.0000   0.0000   0.0000   0.2585
   9.100   1.0900   0.05024   0.04110  -0.0181  0.1153  1.0000  -3.6947   0.0000   0.0000   0.0000   0.2575
   9.200   1.0914   0.05176   0.04283  -0.0172  0.1145  1.0000  -3.7033   0.0000   0.0000   0.0000   0.2565
   9.300   1.0921   0.05333   0.04460  -0.0163  0.1139  1.0000  -3.7090   0.0000   0.0000   0.0000   0.2556
   9.400   1.0919   0.05494   0.04639  -0.0153  0.1133  1.0000  -3.7115   0.0000   0.0000   0.0000   0.2546
   9.500   1.0908   0.05659   0.04821  -0.0144  0.1129  1.0000  -3.7104   0.0000   0.0000   0.0000   0.2537
   9.600   1.0887   0.05827   0.05006  -0.0134  0.1127  1.0000  -3.7055   0.0000   0.0000   0.0000   0.2528
   9.700   1.0855   0.05999   0.05194  -0.0125  0.1125  1.0000  -3.6967   0.0000   0.0000   0.0000   0.2519
   9.800   1.0813   0.06174   0.05385  -0.0116  0.1125  1.0000  -3.6840   0.0000   0.0000   0.0000   0.2510
   9.900   1.0761   0.06352   0.05577  -0.0107  0.1126  1.0000  -3.6674   0.0000   0.0000   0.0000   0.2501
  10.000   1.0697   0.06532   0.05771  -0.0098  0.1127  1.0000  -3.6473   0.0000   0.0000   0.0000   0.2493
  10.100   1.0624   0.06715   0.05966  -0.0090  0.1130  1.0000  -3.6237   0.0000   0.0000   0.0000   0.2485
  10.200   1.0539   0.06894   0.06155  -0.0082  0.1133  1.0000  -3.5971   0.0000   0.0000   0.0000   0.2477
  10.300   1.0444   0.07072   0.06342  -0.0074  0.1136  1.0000  -3.5681   0.0000   0.0000   0.0000   0.2469
  10.400   1.0345   0.07259   0.06537  -0.0068  0.1140  1.0000  -3.5366   0.0000   0.0000   0.0000   0.2462
  10.500   1.0242   0.07458   0.06744  -0.0064  0.1144  1.0000  -3.5025   0.0000   0.0000   0.0000   0.2459
  10.600   1.0136   0.07670   0.06962  -0.0064  0.1149  1.0000  -3.4659   0.0000   0.0000   0.0000   0.2458
  10.700   1.0030   0.07895   0.07193  -0.0066  0.1154  1.0000  -3.4271   0.0000   0.0000   0.0000   0.2460
  10.800   0.9924   0.08136   0.07438  -0.0072  0.1159  1.0000  -3.3866   0.0000   0.0000   0.0000   0.2465
  10.900   0.9822   0.08389   0.07696  -0.0080  0.1164  1.0000  -3.3449   0.0000   0.0000   0.0000   0.2473
  11.000   0.9725   0.08656   0.07966  -0.0089  0.1170  1.0000  -3.3031   0.0000   0.0000   0.0000   0.2482
  11.100   0.9637   0.08933   0.08246  -0.0100  0.1175  1.0000  -3.2628   0.0000   0.0000   0.0000   0.2493
  11.200   0.9561   0.09214   0.08529  -0.0112  0.1180  1.0000  -3.2256   0.0000   0.0000   0.0000   0.2505
  11.300   0.9500   0.09494   0.08811  -0.0122  0.1185  1.0000  -3.1935   0.0000   0.0000   0.0000   0.2516
  11.400   0.9455   0.09772   0.09089  -0.0131  0.1190  1.0000  -3.1676   0.0000   0.0000   0.0000   0.2525
  11.500   0.9425   0.10046   0.09363  -0.0139  0.1194  1.0000  -3.1476   0.0000   0.0000   0.0000   0.2533
  11.700   0.8557   0.12161   0.11463  -0.0334  0.1345  1.0000  -2.4806   0.0000   0.0000   0.0000   0.2779
  11.800   0.8567   0.12390   0.11692  -0.0338  0.1355  1.0000  -2.4769   0.0000   0.0000   0.0000   0.2782
  11.900   0.8605   0.12589   0.11892  -0.0335  0.1365  1.0000  -2.4917   0.0000   0.0000   0.0000   0.2777
  12.000   0.8687   0.12746   0.12060  -0.0324  0.1373  1.0000  -2.5284   0.0000   0.0000   0.0000   0.2759
  12.200   0.7753   0.15338   0.14625  -0.0593  0.2547  1.0000  -1.6569   0.0000   0.0000   0.0000   0.3158
  12.300   0.7757   0.15510   0.14796  -0.0598  0.2537  1.0000  -1.6538   0.0000   0.0000   0.0000   0.3163
  12.400   0.7770   0.15679   0.14965  -0.0602  0.2523  1.0000  -1.6542   0.0000   0.0000   0.0000   0.3167
  12.500   0.7794   0.15851   0.15139  -0.0605  0.2506  1.0000  -1.6594   0.0000   0.0000   0.0000   0.3167
  12.600   0.7832   0.16035   0.15323  -0.0607  0.2489  1.0000  -1.6698   0.0000   0.0000   0.0000   0.3165
  12.700   0.7888   0.16238   0.15528  -0.0608  0.2472  1.0000  -1.6860   0.0000   0.0000   0.0000   0.3159
  12.800   0.7969   0.16479   0.15772  -0.0606  0.2456  1.0000  -1.7109   0.0000   0.0000   0.0000   0.3149
  12.900   0.8097   0.16802   0.16099  -0.0602  0.2441  1.0000  -1.7512   0.0000   0.0000   0.0000   0.3131
  13.000   0.8303   0.17322   0.16625  -0.0591  0.2427  1.0000  -1.8153   0.0000   0.0000   0.0000   0.3099
  13.100   0.8305   0.17572   0.16872  -0.0597  0.2420  1.0000  -1.8077   0.0000   0.0000   0.0000   0.3106
  13.200   0.8135   0.17483   0.16777  -0.0617  0.2411  1.0000  -1.7438   0.0000   0.0000   0.0000   0.3144
  13.300   0.7941   0.17314   0.16601  -0.0637  0.2383  1.0000  -1.6738   0.0000   0.0000   0.0000   0.3185
  13.400   0.7888   0.17357   0.16643  -0.0647  0.2345  1.0000  -1.6512   0.0000   0.0000   0.0000   0.3201
  13.500   0.7893   0.17484   0.16770  -0.0652  0.2313  1.0000  -1.6489   0.0000   0.0000   0.0000   0.3206
  13.600   0.7922   0.17638   0.16924  -0.0655  0.2285  1.0000  -1.6554   0.0000   0.0000   0.0000   0.3206
  13.700   0.7975   0.17819   0.17106  -0.0655  0.2258  1.0000  -1.6712   0.0000   0.0000   0.0000   0.3200
  13.800   0.8415   0.18734   0.18033  -0.0616  0.2193  1.0000  -1.8305   0.0000   0.0000   0.0000   0.3111
  13.900   0.8316   0.18730   0.18025  -0.0633  0.2188  1.0000  -1.7863   0.0000   0.0000   0.0000   0.3139
  14.000   0.8207   0.18683   0.17974  -0.0650  0.2180  1.0000  -1.7402   0.0000   0.0000   0.0000   0.3168
  14.100   0.8099   0.18605   0.17892  -0.0666  0.2164  1.0000  -1.6949   0.0000   0.0000   0.0000   0.3196
  14.200   0.8039   0.18600   0.17885  -0.0680  0.2127  1.0000  -1.6662   0.0000   0.0000   0.0000   0.3217
  14.300   0.8048   0.18698   0.17983  -0.0684  0.2077  1.0000  -1.6664   0.0000   0.0000   0.0000   0.3221
  14.400   0.8151   0.18902   0.18190  -0.0676  0.2020  1.0000  -1.7087   0.0000   0.0000   0.0000   0.3199
  14.600   0.8497   0.19965   0.19268  -0.0652  0.1972  1.0000  -1.8193   0.0000   0.0000   0.0000   0.3137
  14.700   0.8379   0.19856   0.19155  -0.0672  0.1966  1.0000  -1.7671   0.0000   0.0000   0.0000   0.3170
  14.800   0.8257   0.19696   0.18982  -0.0692  0.1951  1.0000  -1.7172   0.0000   0.0000   0.0000   0.3204
  14.900   0.8196   0.19666   0.18950  -0.0709  0.1921  1.0000  -1.6839   0.0000   0.0000   0.0000   0.3228
  15.000   0.8196   0.19764   0.19047  -0.0717  0.1890  1.0000  -1.6751   0.0000   0.0000   0.0000   0.3237


