xflr5 v6.55

 Calculated polar for: NACA 2410

 1 1 Reynolds number fixed          Mach number fixed         

 xtrf =   1.000 (top)        1.000 (bottom)
 Mach =   0.200     Re =     0.160 e 6     Ncrit =   9.000

  alpha     CL        CD       CDp       Cm    Top Xtr Bot Xtr   Cpmin    Chinge    XCp    
 ------- -------- --------- --------- -------- ------- ------- -------- --------- ---------
   0.000   0.2923   0.01087   0.00523  -0.0684  0.9015  1.0000  -0.5276   0.0000   0.0000   0.0000   0.4831
   0.100   0.3002   0.01087   0.00520  -0.0676  0.8932  1.0000  -0.5352   0.0000   0.0000   0.0000   0.4743
   0.200   0.3117   0.01081   0.00512  -0.0674  0.8866  1.0000  -0.5451   0.0000   0.0000   0.0000   0.4654
   0.300   0.3251   0.01073   0.00501  -0.0676  0.8813  1.0000  -0.5560   0.0000   0.0000   0.0000   0.4568
   0.400   0.3392   0.01064   0.00489  -0.0678  0.8769  1.0000  -0.5677   0.0000   0.0000   0.0000   0.4488
   0.500   0.3468   0.01066   0.00489  -0.0670  0.8680  1.0000  -0.5759   0.0000   0.0000   0.0000   0.4419
   0.600   0.3575   0.01062   0.00483  -0.0667  0.8609  1.0000  -0.5861   0.0000   0.0000   0.0000   0.4351
   0.700   0.3694   0.01056   0.00473  -0.0665  0.8551  1.0000  -0.5972   0.0000   0.0000   0.0000   0.4285
   0.800   0.3810   0.01052   0.00466  -0.0663  0.8491  1.0000  -0.6086   0.0000   0.0000   0.0000   0.4224
   0.900   0.3896   0.01054   0.00466  -0.0656  0.8402  1.0000  -0.6182   0.0000   0.0000   0.0000   0.4168
   1.000   0.4001   0.01051   0.00460  -0.0652  0.8329  1.0000  -0.6292   0.0000   0.0000   0.0000   0.4113
   1.100   0.4118   0.01047   0.00451  -0.0650  0.8270  1.0000  -0.6419   0.0000   0.0000   0.0000   0.4059
   1.200   0.4214   0.01049   0.00451  -0.0645  0.8190  1.0000  -0.6531   0.0000   0.0000   0.0000   0.4011
   1.300   0.4310   0.01050   0.00451  -0.0640  0.8105  1.0000  -0.6647   0.0000   0.0000   0.0000   0.3964
   1.400   0.4416   0.01048   0.00445  -0.0636  0.8033  1.0000  -0.6779   0.0000   0.0000   0.0000   0.3919
   1.500   0.4530   0.01048   0.00439  -0.0633  0.7969  1.0000  -0.6921   0.0000   0.0000   0.0000   0.3875
   1.600   0.4619   0.01053   0.00444  -0.0627  0.7876  1.0000  -0.7050   0.0000   0.0000   0.0000   0.3836
   1.700   0.4720   0.01054   0.00443  -0.0623  0.7795  1.0000  -0.7198   0.0000   0.0000   0.0000   0.3797
   1.800   0.4830   0.01055   0.00438  -0.0619  0.7726  1.0000  -0.7364   0.0000   0.0000   0.0000   0.3759
   1.900   0.4930   0.01060   0.00444  -0.0615  0.7645  1.0000  -0.7533   0.0000   0.0000   0.0000   0.3723
   2.000   0.5027   0.01064   0.00446  -0.0611  0.7555  1.0000  -0.7716   0.0000   0.0000   0.0000   0.3690
   2.100   0.5131   0.01067   0.00445  -0.0607  0.7479  1.0000  -0.7926   0.0000   0.0000   0.0000   0.3656
   2.200   0.5241   0.01072   0.00442  -0.0604  0.7411  1.0000  -0.8157   0.0000   0.0000   0.0000   0.3625
   2.300   0.5335   0.01078   0.00449  -0.0599  0.7319  1.0000  -0.8387   0.0000   0.0000   0.0000   0.3595
   2.400   0.5436   0.01082   0.00452  -0.0595  0.7234  1.0000  -0.8635   0.0000   0.0000   0.0000   0.3566
   2.500   0.5543   0.01088   0.00451  -0.0591  0.7161  1.0000  -0.8922   0.0000   0.0000   0.0000   0.3538
   2.600   0.5645   0.01095   0.00455  -0.0588  0.7083  1.0000  -0.9203   0.0000   0.0000   0.0000   0.3511
   2.700   0.5743   0.01101   0.00461  -0.0584  0.6994  1.0000  -0.9491   0.0000   0.0000   0.0000   0.3486
   2.800   0.5846   0.01107   0.00463  -0.0580  0.6913  1.0000  -0.9822   0.0000   0.0000   0.0000   0.3461
   2.900   0.5954   0.01115   0.00464  -0.0577  0.6843  1.0000  -1.0165   0.0000   0.0000   0.0000   0.3436
   3.000   0.6052   0.01122   0.00473  -0.0573  0.6755  1.0000  -1.0490   0.0000   0.0000   0.0000   0.3414
   3.100   0.6152   0.01129   0.00478  -0.0569  0.6669  1.0000  -1.0824   0.0000   0.0000   0.0000   0.3391
   3.200   0.6256   0.01136   0.00480  -0.0565  0.6591  1.0000  -1.1205   0.0000   0.0000   0.0000   0.3369
   3.300   0.6360   0.01146   0.00485  -0.0562  0.6515  1.0000  -1.1612   0.0000   0.0000   0.0000   0.3348
   3.400   0.6459   0.01153   0.00494  -0.0558  0.6424  1.0000  -1.2010   0.0000   0.0000   0.0000   0.3328
   3.500   0.6560   0.01160   0.00498  -0.0554  0.6338  1.0000  -1.2420   0.0000   0.0000   0.0000   0.3308
   3.600   0.6665   0.01171   0.00501  -0.0551  0.6261  1.0000  -1.2843   0.0000   0.0000   0.0000   0.3288
   3.700   0.6763   0.01178   0.00510  -0.0547  0.6171  1.0000  -1.3253   0.0000   0.0000   0.0000   0.3270
   3.800   0.6863   0.01185   0.00523  -0.0543  0.6078  1.0000  -1.3679   0.0000   0.0000   0.0000   0.3251
   3.900   0.6965   0.01195   0.00526  -0.0539  0.5992  1.0000  -1.4111   0.0000   0.0000   0.0000   0.3233
   4.000   0.7065   0.01205   0.00534  -0.0535  0.5903  1.0000  -1.4614   0.0000   0.0000   0.0000   0.3216
   4.100   0.7163   0.01211   0.00542  -0.0531  0.5804  1.0000  -1.5118   0.0000   0.0000   0.0000   0.3199
   4.200   0.7263   0.01221   0.00546  -0.0526  0.5711  1.0000  -1.5637   0.0000   0.0000   0.0000   0.3182
   4.300   0.7363   0.01232   0.00554  -0.0523  0.5619  1.0000  -1.6159   0.0000   0.0000   0.0000   0.3166
   4.400   0.7461   0.01239   0.00563  -0.0518  0.5515  1.0000  -1.6680   0.0000   0.0000   0.0000   0.3150
   4.500   0.7559   0.01249   0.00568  -0.0514  0.5416  1.0000  -1.7211   0.0000   0.0000   0.0000   0.3134
   4.600   0.7657   0.01260   0.00576  -0.0510  0.5319  1.0000  -1.7745   0.0000   0.0000   0.0000   0.3119
   4.700   0.7755   0.01268   0.00586  -0.0506  0.5209  1.0000  -1.8281   0.0000   0.0000   0.0000   0.3104
   4.800   0.7851   0.01281   0.00591  -0.0501  0.5107  1.0000  -1.8822   0.0000   0.0000   0.0000   0.3089
   4.900   0.7948   0.01290   0.00602  -0.0497  0.4997  1.0000  -1.9367   0.0000   0.0000   0.0000   0.3075
   5.000   0.8044   0.01300   0.00611  -0.0492  0.4881  1.0000  -1.9914   0.0000   0.0000   0.0000   0.3061
   5.100   0.8138   0.01315   0.00618  -0.0487  0.4774  1.0000  -2.0465   0.0000   0.0000   0.0000   0.3047
   5.200   0.8234   0.01323   0.00630  -0.0483  0.4646  1.0000  -2.1131   0.0000   0.0000   0.0000   0.3034
   5.300   0.8325   0.01338   0.00637  -0.0478  0.4522  1.0000  -2.1793   0.0000   0.0000   0.0000   0.3020
   5.400   0.8420   0.01348   0.00650  -0.0473  0.4388  1.0000  -2.2469   0.0000   0.0000   0.0000   0.3007
   5.500   0.8509   0.01364   0.00659  -0.0468  0.4249  1.0000  -2.3135   0.0000   0.0000   0.0000   0.2994
   5.600   0.8602   0.01375   0.00671  -0.0463  0.4096  1.0000  -2.3816   0.0000   0.0000   0.0000   0.2982
   5.700   0.8687   0.01393   0.00688  -0.0457  0.3938  1.0000  -2.4406   0.0000   0.0000   0.0000   0.2968
   5.800   0.8777   0.01408   0.00701  -0.0452  0.3753  1.0000  -2.5075   0.0000   0.0000   0.0000   0.2956
   5.900   0.8862   0.01427   0.00715  -0.0446  0.3559  1.0000  -2.5738   0.0000   0.0000   0.0000   0.2944
   6.000   0.8941   0.01451   0.00730  -0.0440  0.3338  1.0000  -2.6388   0.0000   0.0000   0.0000   0.2931
   6.100   0.9016   0.01479   0.00747  -0.0433  0.3083  1.0000  -2.7026   0.0000   0.0000   0.0000   0.2918
   6.200   0.9087   0.01513   0.00768  -0.0426  0.2795  1.0000  -2.7647   0.0000   0.0000   0.0000   0.2905
   6.300   0.9150   0.01556   0.00793  -0.0418  0.2481  1.0000  -2.8240   0.0000   0.0000   0.0000   0.2892
   6.400   0.9208   0.01606   0.00824  -0.0410  0.2166  1.0000  -2.8806   0.0000   0.0000   0.0000   0.2879
   6.500   0.9266   0.01660   0.00860  -0.0401  0.1862  1.0000  -2.9358   0.0000   0.0000   0.0000   0.2867
   6.600   0.9321   0.01719   0.00901  -0.0393  0.1613  1.0000  -2.9881   0.0000   0.0000   0.0000   0.2854
   6.700   0.9377   0.01778   0.00946  -0.0384  0.1419  1.0000  -3.0395   0.0000   0.0000   0.0000   0.2841
   6.800   0.9439   0.01833   0.00992  -0.0376  0.1271  1.0000  -3.0913   0.0000   0.0000   0.0000   0.2829
   6.900   0.9497   0.01891   0.01040  -0.0368  0.1161  1.0000  -3.1416   0.0000   0.0000   0.0000   0.2816
   7.000   0.9565   0.01939   0.01083  -0.0361  0.1067  1.0000  -3.1972   0.0000   0.0000   0.0000   0.2805
   7.100   0.9627   0.01993   0.01132  -0.0353  0.0993  1.0000  -3.2485   0.0000   0.0000   0.0000   0.2793
   7.200   0.9702   0.02033   0.01172  -0.0347  0.0927  1.0000  -3.3076   0.0000   0.0000   0.0000   0.2783
   7.300   0.9749   0.02102   0.01231  -0.0337  0.0874  1.0000  -3.3544   0.0000   0.0000   0.0000   0.2771
   7.400   0.9829   0.02142   0.01276  -0.0331  0.0833  1.0000  -3.4089   0.0000   0.0000   0.0000   0.2760
   7.500   0.9905   0.02185   0.01321  -0.0324  0.0794  1.0000  -3.4636   0.0000   0.0000   0.0000   0.2750
   7.600   0.9973   0.02234   0.01369  -0.0317  0.0761  1.0000  -3.5184   0.0000   0.0000   0.0000   0.2740
   7.700   1.0023   0.02316   0.01442  -0.0308  0.0731  1.0000  -3.5612   0.0000   0.0000   0.0000   0.2728
   7.800   1.0101   0.02368   0.01499  -0.0302  0.0708  1.0000  -3.6099   0.0000   0.0000   0.0000   0.2718
   7.900   1.0183   0.02414   0.01557  -0.0296  0.0684  1.0000  -3.6646   0.0000   0.0000   0.0000   0.2708
   8.000   1.0262   0.02464   0.01610  -0.0290  0.0661  1.0000  -3.7166   0.0000   0.0000   0.0000   0.2699
   8.100   1.0338   0.02513   0.01659  -0.0284  0.0638  1.0000  -3.7720   0.0000   0.0000   0.0000   0.2690
   8.200   1.0409   0.02571   0.01714  -0.0278  0.0616  1.0000  -3.8309   0.0000   0.0000   0.0000   0.2682
   8.300   1.0479   0.02690   0.01825  -0.0273  0.0591  1.0000  -3.8917   0.0000   0.0000   0.0000   0.2674
   8.400   1.0561   0.02716   0.01862  -0.0267  0.0574  1.0000  -3.9693   0.0000   0.0000   0.0000   0.2665
   8.500   1.0640   0.02755   0.01909  -0.0262  0.0553  1.0000  -4.0460   0.0000   0.0000   0.0000   0.2657
   8.600   1.0718   0.02803   0.01962  -0.0256  0.0535  1.0000  -4.1219   0.0000   0.0000   0.0000   0.2649
   8.700   1.0798   0.02860   0.02022  -0.0251  0.0520  1.0000  -4.1962   0.0000   0.0000   0.0000   0.2641
   8.800   1.0876   0.02920   0.02083  -0.0246  0.0507  1.0000  -4.2717   0.0000   0.0000   0.0000   0.2633
   8.900   1.0954   0.02989   0.02152  -0.0241  0.0496  1.0000  -4.3477   0.0000   0.0000   0.0000   0.2626
   9.000   1.1035   0.03088   0.02251  -0.0238  0.0484  1.0000  -4.4185   0.0000   0.0000   0.0000   0.2620
   9.100   1.1124   0.03264   0.02430  -0.0236  0.0471  1.0000  -4.4668   0.0000   0.0000   0.0000   0.2616
   9.200   1.1196   0.03321   0.02500  -0.0229  0.0465  1.0000  -4.5294   0.0000   0.0000   0.0000   0.2607
   9.300   1.1268   0.03391   0.02583  -0.0222  0.0459  1.0000  -4.5877   0.0000   0.0000   0.0000   0.2599
   9.400   1.1337   0.03471   0.02676  -0.0216  0.0452  1.0000  -4.6419   0.0000   0.0000   0.0000   0.2591
   9.500   1.1402   0.03559   0.02777  -0.0209  0.0445  1.0000  -4.6923   0.0000   0.0000   0.0000   0.2582
   9.600   1.1462   0.03653   0.02885  -0.0201  0.0439  1.0000  -4.7391   0.0000   0.0000   0.0000   0.2574
   9.700   1.1517   0.03753   0.02997  -0.0194  0.0433  1.0000  -4.7825   0.0000   0.0000   0.0000   0.2565
   9.800   1.1566   0.03856   0.03114  -0.0186  0.0428  1.0000  -4.8226   0.0000   0.0000   0.0000   0.2556
   9.900   1.1609   0.03964   0.03235  -0.0177  0.0423  1.0000  -4.8594   0.0000   0.0000   0.0000   0.2547
  10.000   1.1646   0.04075   0.03360  -0.0168  0.0420  1.0000  -4.8924   0.0000   0.0000   0.0000   0.2538
  10.100   1.1675   0.04191   0.03489  -0.0159  0.0417  1.0000  -4.9213   0.0000   0.0000   0.0000   0.2529
  10.200   1.1697   0.04311   0.03622  -0.0149  0.0414  1.0000  -4.9456   0.0000   0.0000   0.0000   0.2519
  10.300   1.1709   0.04434   0.03764  -0.0139  0.0413  1.0000  -4.9694   0.0000   0.0000   0.0000   0.2509
  10.400   1.1713   0.04562   0.03906  -0.0128  0.0411  1.0000  -4.9840   0.0000   0.0000   0.0000   0.2498
  10.500   1.1707   0.04690   0.04048  -0.0117  0.0410  1.0000  -4.9954   0.0000   0.0000   0.0000   0.2488
  10.600   1.1696   0.04812   0.04183  -0.0105  0.0408  1.0000  -5.0075   0.0000   0.0000   0.0000   0.2477
  10.700   1.1673   0.04924   0.04306  -0.0093  0.0406  1.0000  -5.0194   0.0000   0.0000   0.0000   0.2465
  10.800   1.1649   0.05032   0.04424  -0.0080  0.0404  1.0000  -5.0335   0.0000   0.0000   0.0000   0.2453
  10.900   1.1625   0.05137   0.04536  -0.0069  0.0401  1.0000  -5.0518   0.0000   0.0000   0.0000   0.2442
  11.000   1.1608   0.05235   0.04642  -0.0058  0.0397  1.0000  -5.0778   0.0000   0.0000   0.0000   0.2432
  11.100   1.1609   0.05321   0.04731  -0.0050  0.0393  1.0000  -5.1220   0.0000   0.0000   0.0000   0.2423
  11.200   1.1600   0.05410   0.04823  -0.0042  0.0388  1.0000  -5.1626   0.0000   0.0000   0.0000   0.2415
  11.300   1.1578   0.05511   0.04928  -0.0034  0.0384  1.0000  -5.1942   0.0000   0.0000   0.0000   0.2407
  11.400   1.1552   0.05623   0.05044  -0.0027  0.0380  1.0000  -5.2224   0.0000   0.0000   0.0000   0.2400
  11.500   1.1515   0.05753   0.05180  -0.0021  0.0376  1.0000  -5.2402   0.0000   0.0000   0.0000   0.2393
  11.600   1.1466   0.05904   0.05337  -0.0015  0.0373  1.0000  -5.2448   0.0000   0.0000   0.0000   0.2386
  11.700   1.1404   0.06071   0.05511  -0.0010  0.0371  1.0000  -5.2372   0.0000   0.0000   0.0000   0.2381
  11.800   1.1333   0.06245   0.05694  -0.0007  0.0370  1.0000  -5.2213   0.0000   0.0000   0.0000   0.2376
  11.900   1.1257   0.06426   0.05884  -0.0004  0.0369  1.0000  -5.2005   0.0000   0.0000   0.0000   0.2372
  12.000   1.1177   0.06613   0.06079  -0.0004  0.0368  1.0000  -5.1766   0.0000   0.0000   0.0000   0.2370
  12.100   1.1096   0.06805   0.06280  -0.0005  0.0368  1.0000  -5.1507   0.0000   0.0000   0.0000   0.2370
  12.200   1.1014   0.07001   0.06484  -0.0007  0.0368  1.0000  -5.1233   0.0000   0.0000   0.0000   0.2370
  12.300   1.0931   0.07202   0.06695  -0.0012  0.0367  1.0000  -5.0946   0.0000   0.0000   0.0000   0.2373
  12.400   1.0848   0.07411   0.06912  -0.0018  0.0367  1.0000  -5.0645   0.0000   0.0000   0.0000   0.2377
  12.500   1.0766   0.07627   0.07137  -0.0026  0.0368  1.0000  -5.0329   0.0000   0.0000   0.0000   0.2383
  12.600   1.0683   0.07852   0.07370  -0.0036  0.0368  1.0000  -4.9992   0.0000   0.0000   0.0000   0.2391
  12.700   1.0599   0.08086   0.07611  -0.0048  0.0369  1.0000  -4.9627   0.0000   0.0000   0.0000   0.2401
  12.800   1.0513   0.08331   0.07865  -0.0062  0.0370  1.0000  -4.9214   0.0000   0.0000   0.0000   0.2413
  12.900   1.0418   0.08602   0.08145  -0.0079  0.0371  1.0000  -4.8679   0.0000   0.0000   0.0000   0.2429
  13.000   0.9429   0.10843   0.10434  -0.0251  0.0449  1.0000  -3.8601   0.0000   0.0000   0.0000   0.2622
  13.100   0.9317   0.11295   0.10887  -0.0278  0.0454  1.0000  -3.7557   0.0000   0.0000   0.0000   0.2654
  13.200   0.9223   0.11709   0.11302  -0.0300  0.0459  1.0000  -3.6646   0.0000   0.0000   0.0000   0.2681
  13.300   0.9150   0.12072   0.11664  -0.0317  0.0463  1.0000  -3.5930   0.0000   0.0000   0.0000   0.2702
  13.400   0.9101   0.12374   0.11966  -0.0328  0.0467  1.0000  -3.5449   0.0000   0.0000   0.0000   0.2715
  13.500   0.9079   0.12605   0.12196  -0.0332  0.0470  1.0000  -3.5257   0.0000   0.0000   0.0000   0.2718
  13.700   0.8615   0.15865   0.15461  -0.0456  0.0869  1.0000  -2.3987   0.0000   0.0000   0.0000   0.2896
  13.800   0.8546   0.16164   0.15757  -0.0485  0.0866  1.0000  -2.3195   0.0000   0.0000   0.0000   0.2934
  13.900   0.8335   0.16591   0.16178  -0.0561  0.0838  1.0000  -2.0963   0.0000   0.0000   0.0000   0.3040
  14.000   0.8314   0.16814   0.16400  -0.0577  0.0822  1.0000  -2.0599   0.0000   0.0000   0.0000   0.3062
  14.100   0.8313   0.17008   0.16594  -0.0588  0.0810  1.0000  -2.0436   0.0000   0.0000   0.0000   0.3074
  14.200   0.8320   0.17185   0.16770  -0.0597  0.0799  1.0000  -2.0362   0.0000   0.0000   0.0000   0.3082
  14.300   0.8336   0.17342   0.16928  -0.0603  0.0786  1.0000  -2.0385   0.0000   0.0000   0.0000   0.3087
  14.400   0.8366   0.17472   0.17058  -0.0605  0.0773  1.0000  -2.0567   0.0000   0.0000   0.0000   0.3085
  14.500   0.8432   0.17530   0.17117  -0.0597  0.0756  1.0000  -2.1170   0.0000   0.0000   0.0000   0.3069
  14.700   0.3275   0.04949   0.04616   0.0019  0.1019  1.0000  -0.8190   0.0000   0.0000   0.0000   0.2451
  14.800   0.3182   0.05014   0.04680  -0.0005  0.1001  1.0000  -0.7418   0.0000   0.0000   0.0000   0.2527
  14.900   0.3169   0.05110   0.04775  -0.0016  0.0975  1.0000  -0.7174   0.0000   0.0000   0.0000   0.2566
  15.000   0.3192   0.05217   0.04881  -0.0023  0.0954  1.0000  -0.7175   0.0000   0.0000   0.0000   0.2585


