xflr5 v6.55

 Calculated polar for: NACA 2410

 1 1 Reynolds number fixed          Mach number fixed         

 xtrf =   1.000 (top)        1.000 (bottom)
 Mach =   0.200     Re =     0.145 e 6     Ncrit =   9.000

  alpha     CL        CD       CDp       Cm    Top Xtr Bot Xtr   Cpmin    Chinge    XCp    
 ------- -------- --------- --------- -------- ------- ------- -------- --------- ---------
   0.000   0.2769   0.01180   0.00589  -0.0664  0.9060  1.0000  -0.5176   0.0000   0.0000   0.0000   0.4893
   0.100   0.2945   0.01169   0.00576  -0.0675  0.9025  1.0000  -0.5308   0.0000   0.0000   0.0000   0.4783
   0.200   0.3051   0.01167   0.00571  -0.0672  0.8957  1.0000  -0.5400   0.0000   0.0000   0.0000   0.4693
   0.300   0.3158   0.01163   0.00566  -0.0669  0.8884  1.0000  -0.5492   0.0000   0.0000   0.0000   0.4608
   0.400   0.3299   0.01155   0.00555  -0.0672  0.8830  1.0000  -0.5607   0.0000   0.0000   0.0000   0.4525
   0.500   0.3448   0.01145   0.00542  -0.0676  0.8785  1.0000  -0.5734   0.0000   0.0000   0.0000   0.4448
   0.600   0.3546   0.01144   0.00539  -0.0671  0.8713  1.0000  -0.5829   0.0000   0.0000   0.0000   0.4380
   0.700   0.3646   0.01142   0.00535  -0.0667  0.8635  1.0000  -0.5926   0.0000   0.0000   0.0000   0.4314
   0.800   0.3769   0.01135   0.00526  -0.0666  0.8574  1.0000  -0.6045   0.0000   0.0000   0.0000   0.4251
   0.900   0.3901   0.01127   0.00514  -0.0666  0.8524  1.0000  -0.6173   0.0000   0.0000   0.0000   0.4191
   1.000   0.3988   0.01129   0.00515  -0.0660  0.8439  1.0000  -0.6269   0.0000   0.0000   0.0000   0.4137
   1.100   0.4089   0.01128   0.00511  -0.0655  0.8360  1.0000  -0.6383   0.0000   0.0000   0.0000   0.4083
   1.200   0.4205   0.01123   0.00503  -0.0652  0.8296  1.0000  -0.6511   0.0000   0.0000   0.0000   0.4032
   1.300   0.4324   0.01120   0.00496  -0.0650  0.8238  1.0000  -0.6644   0.0000   0.0000   0.0000   0.3984
   1.400   0.4409   0.01124   0.00500  -0.0644  0.8144  1.0000  -0.6758   0.0000   0.0000   0.0000   0.3939
   1.500   0.4513   0.01123   0.00496  -0.0639  0.8067  1.0000  -0.6891   0.0000   0.0000   0.0000   0.3895
   1.600   0.4627   0.01120   0.00489  -0.0636  0.8003  1.0000  -0.7042   0.0000   0.0000   0.0000   0.3853
   1.700   0.4727   0.01124   0.00490  -0.0632  0.7924  1.0000  -0.7189   0.0000   0.0000   0.0000   0.3814
   1.800   0.4823   0.01127   0.00492  -0.0627  0.7836  1.0000  -0.7341   0.0000   0.0000   0.0000   0.3776
   1.900   0.4929   0.01127   0.00492  -0.0623  0.7762  1.0000  -0.7516   0.0000   0.0000   0.0000   0.3739
   2.100   0.5134   0.01135   0.00494  -0.0615  0.7605  1.0000  -0.7911   0.0000   0.0000   0.0000   0.3671
   2.200   0.5235   0.01138   0.00495  -0.0610  0.7522  1.0000  -0.8127   0.0000   0.0000   0.0000   0.3639
   2.300   0.5344   0.01141   0.00492  -0.0607  0.7451  1.0000  -0.8379   0.0000   0.0000   0.0000   0.3608
   2.400   0.5447   0.01147   0.00495  -0.0603  0.7374  1.0000  -0.8629   0.0000   0.0000   0.0000   0.3579
   2.500   0.5544   0.01152   0.00501  -0.0599  0.7284  1.0000  -0.8899   0.0000   0.0000   0.0000   0.3551
   2.600   0.5647   0.01157   0.00502  -0.0594  0.7205  1.0000  -0.9183   0.0000   0.0000   0.0000   0.3523
   2.700   0.5758   0.01163   0.00500  -0.0591  0.7137  1.0000  -0.9490   0.0000   0.0000   0.0000   0.3496
   2.800   0.5854   0.01170   0.00509  -0.0587  0.7049  1.0000  -0.9807   0.0000   0.0000   0.0000   0.3471
   2.900   0.5954   0.01176   0.00514  -0.0583  0.6963  1.0000  -1.0134   0.0000   0.0000   0.0000   0.3447
   3.000   0.6059   0.01182   0.00515  -0.0579  0.6887  1.0000  -1.0476   0.0000   0.0000   0.0000   0.3423
   3.100   0.6165   0.01191   0.00519  -0.0576  0.6814  1.0000  -1.0820   0.0000   0.0000   0.0000   0.3400
   3.200   0.6262   0.01198   0.00528  -0.0572  0.6723  1.0000  -1.1179   0.0000   0.0000   0.0000   0.3378
   3.300   0.6364   0.01205   0.00532  -0.0568  0.6638  1.0000  -1.1582   0.0000   0.0000   0.0000   0.3357
   3.400   0.6470   0.01213   0.00533  -0.0564  0.6564  1.0000  -1.2001   0.0000   0.0000   0.0000   0.3335
   3.500   0.6570   0.01222   0.00543  -0.0560  0.6479  1.0000  -1.2404   0.0000   0.0000   0.0000   0.3316
   3.600   0.6668   0.01229   0.00550  -0.0556  0.6387  1.0000  -1.2810   0.0000   0.0000   0.0000   0.3296
   3.700   0.6772   0.01237   0.00553  -0.0552  0.6305  1.0000  -1.3233   0.0000   0.0000   0.0000   0.3276
   3.800   0.6875   0.01247   0.00564  -0.0548  0.6223  1.0000  -1.3668   0.0000   0.0000   0.0000   0.3258
   3.900   0.6972   0.01254   0.00575  -0.0544  0.6126  1.0000  -1.4081   0.0000   0.0000   0.0000   0.3240
   4.000   0.7072   0.01262   0.00579  -0.0539  0.6034  1.0000  -1.4579   0.0000   0.0000   0.0000   0.3222
   4.100   0.7176   0.01274   0.00582  -0.0535  0.5950  1.0000  -1.5103   0.0000   0.0000   0.0000   0.3204
   4.200   0.7271   0.01280   0.00594  -0.0531  0.5849  1.0000  -1.5603   0.0000   0.0000   0.0000   0.3187
   4.300   0.7369   0.01288   0.00599  -0.0526  0.5750  1.0000  -1.6122   0.0000   0.0000   0.0000   0.3170
   4.400   0.7471   0.01301   0.00602  -0.0522  0.5660  1.0000  -1.6659   0.0000   0.0000   0.0000   0.3154
   4.500   0.7566   0.01307   0.00615  -0.0518  0.5554  1.0000  -1.7174   0.0000   0.0000   0.0000   0.3138
   4.600   0.7664   0.01316   0.00621  -0.0513  0.5449  1.0000  -1.7707   0.0000   0.0000   0.0000   0.3123
   4.700   0.7762   0.01329   0.00626  -0.0508  0.5354  1.0000  -1.8250   0.0000   0.0000   0.0000   0.3107
   4.800   0.7858   0.01336   0.00638  -0.0504  0.5240  1.0000  -1.8782   0.0000   0.0000   0.0000   0.3093
   4.900   0.7953   0.01347   0.00644  -0.0499  0.5132  1.0000  -1.9327   0.0000   0.0000   0.0000   0.3078
   5.000   0.8049   0.01358   0.00653  -0.0494  0.5023  1.0000  -1.9873   0.0000   0.0000   0.0000   0.3063
   5.100   0.8144   0.01367   0.00663  -0.0489  0.4901  1.0000  -2.0419   0.0000   0.0000   0.0000   0.3049
   5.300   0.8331   0.01390   0.00682  -0.0479  0.4658  1.0000  -2.1732   0.0000   0.0000   0.0000   0.3022
   5.400   0.8421   0.01405   0.00690  -0.0473  0.4529  1.0000  -2.2396   0.0000   0.0000   0.0000   0.3008
   5.500   0.8514   0.01415   0.00703  -0.0469  0.4389  1.0000  -2.3069   0.0000   0.0000   0.0000   0.2995
   5.600   0.8601   0.01431   0.00711  -0.0463  0.4245  1.0000  -2.3733   0.0000   0.0000   0.0000   0.2981
   5.700   0.8692   0.01443   0.00731  -0.0458  0.4083  1.0000  -2.4336   0.0000   0.0000   0.0000   0.2969
   5.800   0.8776   0.01461   0.00742  -0.0451  0.3917  1.0000  -2.4988   0.0000   0.0000   0.0000   0.2955
   5.900   0.8860   0.01478   0.00755  -0.0445  0.3721  1.0000  -2.5647   0.0000   0.0000   0.0000   0.2943
   6.000   0.8943   0.01497   0.00770  -0.0439  0.3510  1.0000  -2.6305   0.0000   0.0000   0.0000   0.2930
   6.100   0.9019   0.01523   0.00786  -0.0432  0.3272  1.0000  -2.6945   0.0000   0.0000   0.0000   0.2917
   6.200   0.9089   0.01554   0.00805  -0.0424  0.2996  1.0000  -2.7563   0.0000   0.0000   0.0000   0.2904
   6.300   0.9150   0.01595   0.00828  -0.0416  0.2688  1.0000  -2.8149   0.0000   0.0000   0.0000   0.2890
   6.400   0.9209   0.01642   0.00857  -0.0407  0.2355  1.0000  -2.8715   0.0000   0.0000   0.0000   0.2877
   6.500   0.9260   0.01699   0.00893  -0.0398  0.2028  1.0000  -2.9245   0.0000   0.0000   0.0000   0.2864
   6.600   0.9309   0.01763   0.00935  -0.0389  0.1757  1.0000  -2.9746   0.0000   0.0000   0.0000   0.2850
   6.700   0.9362   0.01825   0.00982  -0.0380  0.1542  1.0000  -3.0239   0.0000   0.0000   0.0000   0.2837
   6.800   0.9414   0.01889   0.01031  -0.0371  0.1382  1.0000  -3.0718   0.0000   0.0000   0.0000   0.2824
   6.900   0.9480   0.01940   0.01078  -0.0363  0.1253  1.0000  -3.1234   0.0000   0.0000   0.0000   0.2812
   7.000   0.9537   0.02000   0.01130  -0.0354  0.1157  1.0000  -3.1713   0.0000   0.0000   0.0000   0.2800
   7.100   0.9605   0.02048   0.01175  -0.0347  0.1074  1.0000  -3.2258   0.0000   0.0000   0.0000   0.2788
   7.200   0.9661   0.02110   0.01229  -0.0338  0.1007  1.0000  -3.2738   0.0000   0.0000   0.0000   0.2776
   7.300   0.9739   0.02149   0.01271  -0.0332  0.0942  1.0000  -3.3314   0.0000   0.0000   0.0000   0.2766
   7.400   0.9799   0.02204   0.01320  -0.0325  0.0893  1.0000  -3.3849   0.0000   0.0000   0.0000   0.2755
   7.500   0.9860   0.02270   0.01383  -0.0316  0.0853  1.0000  -3.4301   0.0000   0.0000   0.0000   0.2744
   7.600   0.9940   0.02314   0.01432  -0.0310  0.0817  1.0000  -3.4821   0.0000   0.0000   0.0000   0.2733
   7.700   1.0014   0.02362   0.01481  -0.0304  0.0783  1.0000  -3.5351   0.0000   0.0000   0.0000   0.2724
   7.800   1.0083   0.02419   0.01535  -0.0297  0.0755  1.0000  -3.5879   0.0000   0.0000   0.0000   0.2714
   7.900   1.0143   0.02523   0.01634  -0.0290  0.0727  1.0000  -3.6315   0.0000   0.0000   0.0000   0.2704
   8.000   1.0230   0.02570   0.01689  -0.0284  0.0708  1.0000  -3.6813   0.0000   0.0000   0.0000   0.2695
   8.100   1.0316   0.02623   0.01750  -0.0279  0.0686  1.0000  -3.7289   0.0000   0.0000   0.0000   0.2686
   8.200   1.0399   0.02677   0.01808  -0.0273  0.0663  1.0000  -3.7801   0.0000   0.0000   0.0000   0.2677
   8.300   1.0478   0.02728   0.01860  -0.0268  0.0640  1.0000  -3.8552   0.0000   0.0000   0.0000   0.2669
   8.400   1.0553   0.02785   0.01913  -0.0263  0.0618  1.0000  -3.9337   0.0000   0.0000   0.0000   0.2662
   8.500   1.0635   0.02922   0.02041  -0.0261  0.0592  1.0000  -3.9998   0.0000   0.0000   0.0000   0.2657
   8.600   1.0710   0.02948   0.02081  -0.0254  0.0576  1.0000  -4.0729   0.0000   0.0000   0.0000   0.2647
   8.700   1.0790   0.02996   0.02139  -0.0248  0.0558  1.0000  -4.1445   0.0000   0.0000   0.0000   0.2639
   8.800   1.0873   0.03062   0.02212  -0.0243  0.0544  1.0000  -4.2134   0.0000   0.0000   0.0000   0.2631
   8.900   1.0954   0.03130   0.02287  -0.0238  0.0531  1.0000  -4.2814   0.0000   0.0000   0.0000   0.2624
   9.000   1.1033   0.03200   0.02362  -0.0233  0.0519  1.0000  -4.3506   0.0000   0.0000   0.0000   0.2616
   9.100   1.1111   0.03272   0.02438  -0.0228  0.0508  1.0000  -4.4209   0.0000   0.0000   0.0000   0.2609
   9.200   1.1188   0.03350   0.02519  -0.0223  0.0498  1.0000  -4.4920   0.0000   0.0000   0.0000   0.2602
   9.300   1.1267   0.03449   0.02619  -0.0220  0.0488  1.0000  -4.5610   0.0000   0.0000   0.0000   0.2597
   9.400   1.1345   0.03599   0.02773  -0.0217  0.0478  1.0000  -4.6149   0.0000   0.0000   0.0000   0.2592
   9.500   1.1408   0.03789   0.02975  -0.0213  0.0471  1.0000  -4.6437   0.0000   0.0000   0.0000   0.2586
   9.600   1.1459   0.03867   0.03069  -0.0204  0.0467  1.0000  -4.6883   0.0000   0.0000   0.0000   0.2576
   9.700   1.1506   0.03958   0.03176  -0.0195  0.0463  1.0000  -4.7275   0.0000   0.0000   0.0000   0.2566
   9.800   1.1547   0.04058   0.03293  -0.0185  0.0459  1.0000  -4.7614   0.0000   0.0000   0.0000   0.2557
   9.900   1.1582   0.04167   0.03418  -0.0176  0.0455  1.0000  -4.7904   0.0000   0.0000   0.0000   0.2547
  10.000   1.1608   0.04283   0.03550  -0.0166  0.0452  1.0000  -4.8147   0.0000   0.0000   0.0000   0.2537
  10.100   1.1627   0.04404   0.03688  -0.0156  0.0450  1.0000  -4.8346   0.0000   0.0000   0.0000   0.2527
  10.200   1.1638   0.04530   0.03830  -0.0145  0.0448  1.0000  -4.8503   0.0000   0.0000   0.0000   0.2516
  10.300   1.1640   0.04660   0.03975  -0.0134  0.0446  1.0000  -4.8617   0.0000   0.0000   0.0000   0.2506
  10.400   1.1634   0.04793   0.04127  -0.0123  0.0445  1.0000  -4.8726   0.0000   0.0000   0.0000   0.2495
  10.500   1.1619   0.04928   0.04277  -0.0111  0.0445  1.0000  -4.8772   0.0000   0.0000   0.0000   0.2484
  10.600   1.1594   0.05065   0.04429  -0.0099  0.0444  1.0000  -4.8773   0.0000   0.0000   0.0000   0.2473
  10.700   1.1554   0.05196   0.04572  -0.0085  0.0444  1.0000  -4.8731   0.0000   0.0000   0.0000   0.2460
  10.800   1.1508   0.05329   0.04717  -0.0072  0.0444  1.0000  -4.8661   0.0000   0.0000   0.0000   0.2447
  10.900   1.1456   0.05464   0.04864  -0.0059  0.0445  1.0000  -4.8568   0.0000   0.0000   0.0000   0.2435
  11.000   1.1398   0.05602   0.05013  -0.0047  0.0445  1.0000  -4.8456   0.0000   0.0000   0.0000   0.2424
  11.100   1.1336   0.05744   0.05166  -0.0037  0.0445  1.0000  -4.8323   0.0000   0.0000   0.0000   0.2414
  11.200   1.1269   0.05890   0.05323  -0.0028  0.0445  1.0000  -4.8168   0.0000   0.0000   0.0000   0.2405
  11.300   1.1197   0.06043   0.05486  -0.0021  0.0445  1.0000  -4.7990   0.0000   0.0000   0.0000   0.2397
  11.400   1.1122   0.06203   0.05657  -0.0015  0.0445  1.0000  -4.7788   0.0000   0.0000   0.0000   0.2391
  11.500   1.1044   0.06372   0.05835  -0.0011  0.0445  1.0000  -4.7561   0.0000   0.0000   0.0000   0.2386
  11.600   1.0962   0.06550   0.06023  -0.0010  0.0446  1.0000  -4.7307   0.0000   0.0000   0.0000   0.2383
  11.700   1.0877   0.06739   0.06221  -0.0010  0.0446  1.0000  -4.7027   0.0000   0.0000   0.0000   0.2382
  11.800   1.0790   0.06940   0.06430  -0.0013  0.0447  1.0000  -4.6719   0.0000   0.0000   0.0000   0.2383
  11.900   1.0699   0.07152   0.06651  -0.0018  0.0448  1.0000  -4.6382   0.0000   0.0000   0.0000   0.2386
  12.000   1.0607   0.07376   0.06883  -0.0024  0.0449  1.0000  -4.6015   0.0000   0.0000   0.0000   0.2391
  12.100   1.0512   0.07616   0.07130  -0.0033  0.0451  1.0000  -4.5618   0.0000   0.0000   0.0000   0.2398
  12.200   1.0416   0.07869   0.07391  -0.0045  0.0452  1.0000  -4.5188   0.0000   0.0000   0.0000   0.2408
  12.300   1.0319   0.08138   0.07666  -0.0058  0.0454  1.0000  -4.4725   0.0000   0.0000   0.0000   0.2420
  12.400   1.0221   0.08419   0.07954  -0.0072  0.0456  1.0000  -4.4217   0.0000   0.0000   0.0000   0.2433
  12.500   1.0122   0.08714   0.08249  -0.0089  0.0458  1.0000  -4.3681   0.0000   0.0000   0.0000   0.2448
  12.600   1.0024   0.09022   0.08562  -0.0106  0.0460  1.0000  -4.3135   0.0000   0.0000   0.0000   0.2465
  12.700   0.9927   0.09341   0.08886  -0.0124  0.0462  1.0000  -4.2564   0.0000   0.0000   0.0000   0.2483
  12.800   0.9834   0.09670   0.09219  -0.0142  0.0465  1.0000  -4.1978   0.0000   0.0000   0.0000   0.2502
  12.900   0.9748   0.10002   0.09554  -0.0160  0.0467  1.0000  -4.1397   0.0000   0.0000   0.0000   0.2520
  13.000   0.9676   0.10327   0.09879  -0.0173  0.0470  1.0000  -4.0870   0.0000   0.0000   0.0000   0.2534
  13.200   0.8269   0.15370   0.14934  -0.0518  0.0944  1.0000  -2.1042   0.0000   0.0000   0.0000   0.3003
  13.300   0.8272   0.15563   0.15127  -0.0526  0.0937  1.0000  -2.0957   0.0000   0.0000   0.0000   0.3011
  13.400   0.8279   0.15747   0.15310  -0.0533  0.0930  1.0000  -2.0918   0.0000   0.0000   0.0000   0.3017
  13.500   0.8293   0.15921   0.15489  -0.0538  0.0923  1.0000  -2.0897   0.0000   0.0000   0.0000   0.3021
  13.600   0.8311   0.16087   0.15655  -0.0542  0.0916  1.0000  -2.0931   0.0000   0.0000   0.0000   0.3024
  13.700   0.8335   0.16245   0.15813  -0.0545  0.0909  1.0000  -2.1026   0.0000   0.0000   0.0000   0.3024
  13.800   0.8366   0.16394   0.15963  -0.0546  0.0903  1.0000  -2.1185   0.0000   0.0000   0.0000   0.3022
  13.900   0.8404   0.16535   0.16105  -0.0545  0.0897  1.0000  -2.1416   0.0000   0.0000   0.0000   0.3016
  14.000   0.8451   0.16670   0.16241  -0.0542  0.0891  1.0000  -2.1727   0.0000   0.0000   0.0000   0.3007
  14.100   0.8508   0.16802   0.16374  -0.0535  0.0886  1.0000  -2.2137   0.0000   0.0000   0.0000   0.2994
  14.200   0.8668   0.17022   0.16596  -0.0488  0.0871  1.0000  -2.3595   0.0000   0.0000   0.0000   0.2925
  14.300   0.8631   0.17265   0.16838  -0.0508  0.0869  1.0000  -2.3076   0.0000   0.0000   0.0000   0.2951
  14.400   0.8581   0.17508   0.17079  -0.0533  0.0867  1.0000  -2.2431   0.0000   0.0000   0.0000   0.2983
  14.500   0.8518   0.17741   0.17310  -0.0563  0.0863  1.0000  -2.1641   0.0000   0.0000   0.0000   0.3022
  14.600   0.8419   0.17980   0.17546  -0.0605  0.0852  1.0000  -2.0491   0.0000   0.0000   0.0000   0.3079
  14.700   0.8362   0.18184   0.17747  -0.0633  0.0832  1.0000  -1.9779   0.0000   0.0000   0.0000   0.3117
  14.800   0.8356   0.18354   0.17917  -0.0646  0.0812  1.0000  -1.9562   0.0000   0.0000   0.0000   0.3132
  14.900   0.8373   0.18501   0.18064  -0.0653  0.0793  1.0000  -1.9567   0.0000   0.0000   0.0000   0.3137
  15.000   0.8413   0.18608   0.18171  -0.0654  0.0772  1.0000  -1.9846   0.0000   0.0000   0.0000   0.3133


