xflr5 v6.55

 Calculated polar for: NACA 2410

 1 1 Reynolds number fixed          Mach number fixed         

 xtrf =   1.000 (top)        1.000 (bottom)
 Mach =   0.200     Re =     0.040 e 6     Ncrit =   9.000

  alpha     CL        CD       CDp       Cm    Top Xtr Bot Xtr   Cpmin    Chinge    XCp    
 ------- -------- --------- --------- -------- ------- ------- -------- --------- ---------
   0.000   0.0023   0.02233   0.01111  -0.0210  1.0000  1.0000  -0.5827   0.0000   0.0000   0.0000   9.5839
   0.100   0.0096   0.02255   0.01127  -0.0209  1.0000  1.0000  -0.5587   0.0000   0.0000   0.0000   2.4193
   0.200   0.0170   0.02277   0.01145  -0.0208  1.0000  1.0000  -0.5380   0.0000   0.0000   0.0000   1.4731
   0.300   0.0243   0.02301   0.01164  -0.0207  1.0000  1.0000  -0.5175   0.0000   0.0000   0.0000   1.1003
   0.400   0.0316   0.02326   0.01184  -0.0206  1.0000  1.0000  -0.4972   0.0000   0.0000   0.0000   0.9011
   0.500   0.0388   0.02352   0.01206  -0.0206  1.0000  1.0000  -0.4770   0.0000   0.0000   0.0000   0.7774
   0.600   0.0460   0.02379   0.01229  -0.0205  1.0000  1.0000  -0.4571   0.0000   0.0000   0.0000   0.6933
   0.700   0.0532   0.02408   0.01253  -0.0205  1.0000  1.0000  -0.4374   0.0000   0.0000   0.0000   0.6325
   0.800   0.0603   0.02437   0.01279  -0.0205  1.0000  1.0000  -0.4195   0.0000   0.0000   0.0000   0.5865
   0.900   0.0674   0.02468   0.01306  -0.0205  1.0000  1.0000  -0.4037   0.0000   0.0000   0.0000   0.5506
   1.000   0.0745   0.02499   0.01335  -0.0205  1.0000  1.0000  -0.4085   0.0000   0.0000   0.0000   0.5219
   1.100   0.0815   0.02532   0.01365  -0.0206  1.0000  1.0000  -0.4132   0.0000   0.0000   0.0000   0.4984
   1.200   0.0885   0.02566   0.01396  -0.0206  1.0000  1.0000  -0.4181   0.0000   0.0000   0.0000   0.4789
   1.300   0.0954   0.02601   0.01429  -0.0207  1.0000  1.0000  -0.4233   0.0000   0.0000   0.0000   0.4625
   1.400   0.1024   0.02637   0.01463  -0.0207  1.0000  1.0000  -0.4285   0.0000   0.0000   0.0000   0.4485
   1.500   0.1092   0.02674   0.01498  -0.0208  1.0000  1.0000  -0.4335   0.0000   0.0000   0.0000   0.4364
   1.600   0.1161   0.02713   0.01535  -0.0209  1.0000  1.0000  -0.4385   0.0000   0.0000   0.0000   0.4259
   1.700   0.1229   0.02752   0.01572  -0.0210  1.0000  1.0000  -0.4437   0.0000   0.0000   0.0000   0.4168
   1.800   0.1296   0.02793   0.01611  -0.0211  1.0000  1.0000  -0.4492   0.0000   0.0000   0.0000   0.4087
   1.900   0.1536   0.02863   0.01679  -0.0244  0.9932  1.0000  -0.4657   0.0000   0.0000   0.0000   0.4048
   2.000   0.1749   0.02923   0.01740  -0.0272  0.9849  1.0000  -0.4804   0.0000   0.0000   0.0000   0.4017
   2.100   0.1984   0.02991   0.01806  -0.0303  0.9773  1.0000  -0.4981   0.0000   0.0000   0.0000   0.3989
   2.200   0.2183   0.03047   0.01863  -0.0328  0.9688  1.0000  -0.5133   0.0000   0.0000   0.0000   0.3961
   2.300   0.2415   0.03112   0.01928  -0.0357  0.9610  1.0000  -0.5318   0.0000   0.0000   0.0000   0.3939
   2.400   0.2576   0.03159   0.01978  -0.0373  0.9522  1.0000  -0.5458   0.0000   0.0000   0.0000   0.3910
   2.500   0.2848   0.03229   0.02049  -0.0408  0.9450  1.0000  -0.5690   0.0000   0.0000   0.0000   0.3896
   2.600   0.2942   0.03267   0.02089  -0.0412  0.9363  1.0000  -0.5793   0.0000   0.0000   0.0000   0.3864
   2.700   0.3155   0.03322   0.02146  -0.0436  0.9280  1.0000  -0.5997   0.0000   0.0000   0.0000   0.3845
   2.800   0.3351   0.03376   0.02202  -0.0457  0.9201  1.0000  -0.6202   0.0000   0.0000   0.0000   0.3824
   2.900   0.3467   0.03416   0.02246  -0.0463  0.9111  1.0000  -0.6348   0.0000   0.0000   0.0000   0.3798
   3.000   0.3715   0.03470   0.02304  -0.0491  0.9033  1.0000  -0.6628   0.0000   0.0000   0.0000   0.3784
   3.100   0.3831   0.03516   0.02353  -0.0498  0.8953  1.0000  -0.6802   0.0000   0.0000   0.0000   0.3760
   3.200   0.3956   0.03558   0.02405  -0.0505  0.8864  1.0000  -0.6994   0.0000   0.0000   0.0000   0.3737
   3.300   0.4235   0.03605   0.02458  -0.0535  0.8783  1.0000  -0.7376   0.0000   0.0000   0.0000   0.3724
   3.400   0.4298   0.03649   0.02504  -0.0532  0.8698  1.0000  -0.7537   0.0000   0.0000   0.0000   0.3698
   3.500   0.4423   0.03691   0.02550  -0.0539  0.8611  1.0000  -0.7776   0.0000   0.0000   0.0000   0.3677
   3.600   0.4703   0.03729   0.02596  -0.0567  0.8531  1.0000  -0.8254   0.0000   0.0000   0.0000   0.3664
   3.700   0.4753   0.03777   0.02646  -0.0561  0.8445  1.0000  -0.8425   0.0000   0.0000   0.0000   0.3640
   3.800   0.4866   0.03817   0.02691  -0.0565  0.8352  1.0000  -0.8689   0.0000   0.0000   0.0000   0.3618
   3.900   0.5162   0.03841   0.02726  -0.0592  0.8269  1.0000  -0.9283   0.0000   0.0000   0.0000   0.3604
   4.000   0.5198   0.03895   0.02782  -0.0585  0.8184  1.0000  -0.9462   0.0000   0.0000   0.0000   0.3582
   4.100   0.5291   0.03937   0.02828  -0.0585  0.8089  1.0000  -0.9743   0.0000   0.0000   0.0000   0.3561
   4.200   0.5604   0.03943   0.02847  -0.0610  0.8000  1.0000  -1.0420   0.0000   0.0000   0.0000   0.3545
   4.300   0.5635   0.04001   0.02908  -0.0602  0.7911  1.0000  -1.0611   0.0000   0.0000   0.0000   0.3523
   4.400   0.5719   0.04044   0.02956  -0.0600  0.7815  1.0000  -1.0932   0.0000   0.0000   0.0000   0.3503
   4.500   0.6061   0.04026   0.02953  -0.0624  0.7721  1.0000  -1.1812   0.0000   0.0000   0.0000   0.3484
   4.600   0.6066   0.04093   0.03022  -0.0613  0.7627  1.0000  -1.1973   0.0000   0.0000   0.0000   0.3464
   4.700   0.6165   0.04129   0.03065  -0.0611  0.7524  1.0000  -1.2340   0.0000   0.0000   0.0000   0.3444
   4.800   0.6599   0.04053   0.03021  -0.0637  0.7426  1.0000  -1.3471   0.0000   0.0000   0.0000   0.3419
   4.900   0.6495   0.04163   0.03129  -0.0617  0.7325  1.0000  -1.3382   0.0000   0.0000   0.0000   0.3402
   5.000   0.6667   0.04164   0.03141  -0.0619  0.7213  1.0000  -1.3967   0.0000   0.0000   0.0000   0.3379
   5.100   0.7052   0.04060   0.03055  -0.0631  0.7111  1.0000  -1.5242   0.0000   0.0000   0.0000   0.3346
   5.200   0.6942   0.04190   0.03185  -0.0613  0.6997  1.0000  -1.5114   0.0000   0.0000   0.0000   0.3333
   5.300   0.7279   0.04072   0.03085  -0.0616  0.6876  1.0000  -1.6297   0.0000   0.0000   0.0000   0.3296
   5.400   0.7345   0.04113   0.03133  -0.0606  0.6762  1.0000  -1.6689   0.0000   0.0000   0.0000   0.3275
   5.500   0.7488   0.04091   0.03121  -0.0598  0.6631  1.0000  -1.7324   0.0000   0.0000   0.0000   0.3247
   5.600   0.7767   0.03972   0.03016  -0.0591  0.6499  1.0000  -1.8407   0.0000   0.0000   0.0000   0.3209
   5.700   0.7823   0.03999   0.03051  -0.0578  0.6357  1.0000  -1.8787   0.0000   0.0000   0.0000   0.3186
   5.800   0.8117   0.03835   0.02900  -0.0565  0.6200  1.0000  -1.9967   0.0000   0.0000   0.0000   0.3143
   5.900   0.8254   0.03779   0.02853  -0.0549  0.6031  1.0000  -2.0653   0.0000   0.0000   0.0000   0.3111
   6.000   0.8407   0.03711   0.02792  -0.0532  0.5858  1.0000  -2.1538   0.0000   0.0000   0.0000   0.3078
   6.100   0.8694   0.03501   0.02596  -0.0511  0.5639  1.0000  -2.2962   0.0000   0.0000   0.0000   0.3032
   6.200   0.8770   0.03483   0.02584  -0.0493  0.5436  1.0000  -2.3544   0.0000   0.0000   0.0000   0.3005
   6.300   0.8874   0.03441   0.02544  -0.0473  0.5216  1.0000  -2.4259   0.0000   0.0000   0.0000   0.2975
   6.400   0.9008   0.03366   0.02463  -0.0451  0.4964  1.0000  -2.5117   0.0000   0.0000   0.0000   0.2942
   6.500   0.9122   0.03310   0.02397  -0.0430  0.4693  1.0000  -2.5892   0.0000   0.0000   0.0000   0.2910
   6.600   0.9213   0.03280   0.02355  -0.0409  0.4409  1.0000  -2.6553   0.0000   0.0000   0.0000   0.2881
   6.700   0.9286   0.03270   0.02330  -0.0388  0.4116  1.0000  -2.7124   0.0000   0.0000   0.0000   0.2854
   6.800   0.9351   0.03282   0.02324  -0.0368  0.3829  1.0000  -2.7622   0.0000   0.0000   0.0000   0.2829
   6.900   0.9410   0.03306   0.02329  -0.0350  0.3554  1.0000  -2.8078   0.0000   0.0000   0.0000   0.2806
   7.000   0.9469   0.03348   0.02352  -0.0334  0.3304  1.0000  -2.8500   0.0000   0.0000   0.0000   0.2785
   7.100   0.9537   0.03409   0.02393  -0.0320  0.3082  1.0000  -2.8908   0.0000   0.0000   0.0000   0.2767
   7.200   0.9614   0.03471   0.02429  -0.0309  0.2880  1.0000  -2.9366   0.0000   0.0000   0.0000   0.2751
   7.300   0.9664   0.03543   0.02497  -0.0297  0.2706  1.0000  -2.9688   0.0000   0.0000   0.0000   0.2735
   7.400   0.9721   0.03633   0.02585  -0.0287  0.2556  1.0000  -2.9994   0.0000   0.0000   0.0000   0.2722
   7.500   0.9831   0.03723   0.02643  -0.0281  0.2416  1.0000  -3.0522   0.0000   0.0000   0.0000   0.2712
   7.600   0.9880   0.03841   0.02788  -0.0272  0.2322  1.0000  -3.0644   0.0000   0.0000   0.0000   0.2701
   7.700   0.9985   0.03933   0.02859  -0.0267  0.2214  1.0000  -3.1133   0.0000   0.0000   0.0000   0.2691
   7.800   1.0038   0.04053   0.02995  -0.0259  0.2134  1.0000  -3.1314   0.0000   0.0000   0.0000   0.2681
   7.900   1.0099   0.04142   0.03088  -0.0251  0.2044  1.0000  -3.1624   0.0000   0.0000   0.0000   0.2670
   8.000   1.0193   0.04248   0.03175  -0.0246  0.1957  1.0000  -3.2103   0.0000   0.0000   0.0000   0.2663
   8.100   1.0225   0.04366   0.03319  -0.0237  0.1901  1.0000  -3.2190   0.0000   0.0000   0.0000   0.2652
   8.200   1.0290   0.04488   0.03453  -0.0230  0.1849  1.0000  -3.2400   0.0000   0.0000   0.0000   0.2643
   8.300   1.0380   0.04610   0.03583  -0.0226  0.1801  1.0000  -3.2751   0.0000   0.0000   0.0000   0.2636
   8.400   1.0478   0.04779   0.03743  -0.0224  0.1761  1.0000  -3.3078   0.0000   0.0000   0.0000   0.2631
   8.500   1.0491   0.04930   0.03924  -0.0214  0.1742  1.0000  -3.3012   0.0000   0.0000   0.0000   0.2621
   8.600   1.0503   0.05091   0.04110  -0.0205  0.1723  1.0000  -3.2949   0.0000   0.0000   0.0000   0.2611
   8.700   1.0510   0.05253   0.04295  -0.0196  0.1704  1.0000  -3.2890   0.0000   0.0000   0.0000   0.2602
   8.800   1.0515   0.05413   0.04473  -0.0188  0.1683  1.0000  -3.2849   0.0000   0.0000   0.0000   0.2593
   8.900   1.0524   0.05564   0.04639  -0.0180  0.1659  1.0000  -3.2964   0.0000   0.0000   0.0000   0.2585
   9.000   1.0583   0.05677   0.04752  -0.0174  0.1618  1.0000  -3.3409   0.0000   0.0000   0.0000   0.2577
   9.100   1.0713   0.05811   0.04860  -0.0174  0.1560  1.0000  -3.4283   0.0000   0.0000   0.0000   0.2574
   9.200   1.0668   0.05972   0.05045  -0.0164  0.1550  1.0000  -3.4147   0.0000   0.0000   0.0000   0.2564
   9.300   1.0619   0.06140   0.05234  -0.0154  0.1540  1.0000  -3.4000   0.0000   0.0000   0.0000   0.2555
   9.400   1.0565   0.06316   0.05428  -0.0145  0.1532  1.0000  -3.3840   0.0000   0.0000   0.0000   0.2546
   9.500   1.0505   0.06497   0.05625  -0.0137  0.1525  1.0000  -3.3660   0.0000   0.0000   0.0000   0.2539
   9.600   1.0438   0.06684   0.05825  -0.0130  0.1521  1.0000  -3.3455   0.0000   0.0000   0.0000   0.2532
   9.700   1.0364   0.06876   0.06030  -0.0124  0.1518  1.0000  -3.3222   0.0000   0.0000   0.0000   0.2526
   9.800   1.0284   0.07074   0.06238  -0.0118  0.1518  1.0000  -3.2961   0.0000   0.0000   0.0000   0.2521
   9.900   1.0197   0.07278   0.06450  -0.0114  0.1519  1.0000  -3.2671   0.0000   0.0000   0.0000   0.2517
  10.000   1.0099   0.07476   0.06655  -0.0109  0.1522  1.0000  -3.2360   0.0000   0.0000   0.0000   0.2512
  10.100   1.0000   0.07685   0.06870  -0.0106  0.1526  1.0000  -3.2030   0.0000   0.0000   0.0000   0.2509
  10.200   0.9901   0.07907   0.07097  -0.0105  0.1530  1.0000  -3.1683   0.0000   0.0000   0.0000   0.2509
  10.300   0.9803   0.08142   0.07335  -0.0108  0.1535  1.0000  -3.1322   0.0000   0.0000   0.0000   0.2511
  10.400   0.9708   0.08389   0.07585  -0.0113  0.1540  1.0000  -3.0954   0.0000   0.0000   0.0000   0.2516
  10.500   0.9616   0.08648   0.07847  -0.0120  0.1546  1.0000  -3.0577   0.0000   0.0000   0.0000   0.2524
  10.600   0.9529   0.08918   0.08118  -0.0129  0.1551  1.0000  -3.0200   0.0000   0.0000   0.0000   0.2533
  10.700   0.9450   0.09195   0.08397  -0.0139  0.1555  1.0000  -2.9835   0.0000   0.0000   0.0000   0.2544
  10.800   0.9380   0.09478   0.08681  -0.0149  0.1559  1.0000  -2.9488   0.0000   0.0000   0.0000   0.2555
  10.900   0.9320   0.09763   0.08966  -0.0160  0.1563  1.0000  -2.9168   0.0000   0.0000   0.0000   0.2567
  11.100   0.8707   0.11399   0.10590  -0.0297  0.1775  1.0000  -2.4722   0.0000   0.0000   0.0000   0.2738
  11.200   0.8688   0.11662   0.10852  -0.0305  0.1772  1.0000  -2.4555   0.0000   0.0000   0.0000   0.2748
  11.300   0.8670   0.11926   0.11116  -0.0314  0.1769  1.0000  -2.4390   0.0000   0.0000   0.0000   0.2758
  11.400   0.8655   0.12189   0.11378  -0.0322  0.1767  1.0000  -2.4237   0.0000   0.0000   0.0000   0.2767
  11.800   0.8270   0.14189   0.13363  -0.0458  0.2190  1.0000  -2.0330   0.0000   0.0000   0.0000   0.2950
  12.000   0.7495   0.15525   0.14681  -0.0655  0.3520  1.0000  -1.5753   0.0000   0.0000   0.0000   0.3270
  12.100   0.7525   0.15705   0.14863  -0.0658  0.3501  1.0000  -1.5728   0.0000   0.0000   0.0000   0.3269
  12.200   0.7575   0.15910   0.15069  -0.0660  0.3480  1.0000  -1.5743   0.0000   0.0000   0.0000   0.3266
  12.300   0.8002   0.16814   0.15985  -0.0656  0.3411  1.0000  -1.6499   0.0000   0.0000   0.0000   0.3216
  12.400   0.7904   0.16811   0.15979  -0.0662  0.3406  1.0000  -1.6208   0.0000   0.0000   0.0000   0.3232
  12.500   0.7795   0.16768   0.15932  -0.0667  0.3396  1.0000  -1.5909   0.0000   0.0000   0.0000   0.3248
  12.600   0.7680   0.16692   0.15851  -0.0671  0.3374  1.0000  -1.5605   0.0000   0.0000   0.0000   0.3265
  12.700   0.7611   0.16676   0.15834  -0.0675  0.3325  1.0000  -1.5397   0.0000   0.0000   0.0000   0.3276
  12.800   0.7634   0.16789   0.15947  -0.0675  0.3258  1.0000  -1.5425   0.0000   0.0000   0.0000   0.3273
  13.000   0.8098   0.17939   0.17110  -0.0668  0.3152  1.0000  -1.6733   0.0000   0.0000   0.0000   0.3214
  13.100   0.7966   0.17825   0.16991  -0.0675  0.3143  1.0000  -1.6333   0.0000   0.0000   0.0000   0.3234
  13.200   0.7824   0.17658   0.16819  -0.0682  0.3123  1.0000  -1.5910   0.0000   0.0000   0.0000   0.3256
  13.300   0.7751   0.17617   0.16775  -0.0688  0.3082  1.0000  -1.5677   0.0000   0.0000   0.0000   0.3271
  13.400   0.7749   0.17714   0.16873  -0.0693  0.3044  1.0000  -1.5644   0.0000   0.0000   0.0000   0.3276
  13.500   0.7776   0.17863   0.17022  -0.0695  0.3009  1.0000  -1.5701   0.0000   0.0000   0.0000   0.3275
  13.600   0.7829   0.18055   0.17216  -0.0697  0.2976  1.0000  -1.5835   0.0000   0.0000   0.0000   0.3270
  13.700   0.7916   0.18325   0.17489  -0.0696  0.2947  1.0000  -1.6074   0.0000   0.0000   0.0000   0.3259
  13.800   0.8078   0.18811   0.17980  -0.0694  0.2920  1.0000  -1.6507   0.0000   0.0000   0.0000   0.3238
  13.900   0.8295   0.19574   0.18747  -0.0695  0.2902  1.0000  -1.7026   0.0000   0.0000   0.0000   0.3217
  14.000   0.8163   0.19387   0.18555  -0.0703  0.2895  1.0000  -1.6617   0.0000   0.0000   0.0000   0.3239
  14.100   0.8033   0.19168   0.18331  -0.0713  0.2880  1.0000  -1.6206   0.0000   0.0000   0.0000   0.3263
  14.200   0.7952   0.19053   0.18213  -0.0722  0.2845  1.0000  -1.5921   0.0000   0.0000   0.0000   0.3282
  14.300   0.7943   0.19113   0.18273  -0.0728  0.2805  1.0000  -1.5852   0.0000   0.0000   0.0000   0.3289
  14.400   0.7968   0.19248   0.18408  -0.0732  0.2768  1.0000  -1.5886   0.0000   0.0000   0.0000   0.3289
  14.500   0.8015   0.19431   0.18593  -0.0734  0.2735  1.0000  -1.5995   0.0000   0.0000   0.0000   0.3285
  14.600   0.8092   0.19691   0.18855  -0.0733  0.2705  1.0000  -1.6194   0.0000   0.0000   0.0000   0.3275
  14.700   0.8235   0.20170   0.19339  -0.0729  0.2678  1.0000  -1.6574   0.0000   0.0000   0.0000   0.3254
  14.800   0.8421   0.20945   0.20125  -0.0728  0.2656  1.0000  -1.6989   0.0000   0.0000   0.0000   0.3233
  14.900   0.8312   0.20727   0.19895  -0.0738  0.2649  1.0000  -1.6642   0.0000   0.0000   0.0000   0.3255
  15.000   0.8212   0.20510   0.19674  -0.0750  0.2633  1.0000  -1.6284   0.0000   0.0000   0.0000   0.3278


