xflr5 v6.55

 Calculated polar for: NACA 2410

 1 1 Reynolds number fixed          Mach number fixed         

 xtrf =   1.000 (top)        1.000 (bottom)
 Mach =   0.200     Re =     0.130 e 6     Ncrit =   9.000

  alpha     CL        CD       CDp       Cm    Top Xtr Bot Xtr   Cpmin    Chinge    XCp    
 ------- -------- --------- --------- -------- ------- ------- -------- --------- ---------
   0.000   0.2553   0.01292   0.00669  -0.0635  0.9117  1.0000  -0.5041   0.0000   0.0000   0.0000   0.4981
   0.100   0.2730   0.01284   0.00659  -0.0646  0.9074  1.0000  -0.5169   0.0000   0.0000   0.0000   0.4858
   0.200   0.2917   0.01274   0.00646  -0.0659  0.9038  1.0000  -0.5307   0.0000   0.0000   0.0000   0.4748
   0.300   0.3111   0.01263   0.00633  -0.0672  0.9008  1.0000  -0.5449   0.0000   0.0000   0.0000   0.4650
   0.400   0.3167   0.01266   0.00635  -0.0660  0.8911  1.0000  -0.5512   0.0000   0.0000   0.0000   0.4572
   0.500   0.3308   0.01259   0.00626  -0.0663  0.8852  1.0000  -0.5631   0.0000   0.0000   0.0000   0.4492
   0.600   0.3468   0.01248   0.00613  -0.0670  0.8806  1.0000  -0.5765   0.0000   0.0000   0.0000   0.4417
   0.700   0.3634   0.01237   0.00599  -0.0677  0.8768  1.0000  -0.5903   0.0000   0.0000   0.0000   0.4347
   0.800   0.3697   0.01242   0.00603  -0.0666  0.8672  1.0000  -0.5980   0.0000   0.0000   0.0000   0.4285
   0.900   0.3819   0.01237   0.00596  -0.0665  0.8605  1.0000  -0.6099   0.0000   0.0000   0.0000   0.4224
   1.000   0.3958   0.01228   0.00584  -0.0666  0.8552  1.0000  -0.6231   0.0000   0.0000   0.0000   0.4167
   1.100   0.4088   0.01221   0.00575  -0.0666  0.8498  1.0000  -0.6365   0.0000   0.0000   0.0000   0.4112
   1.200   0.4166   0.01225   0.00579  -0.0658  0.8404  1.0000  -0.6464   0.0000   0.0000   0.0000   0.4061
   1.300   0.4280   0.01221   0.00572  -0.0656  0.8334  1.0000  -0.6592   0.0000   0.0000   0.0000   0.4012
   1.400   0.4406   0.01214   0.00562  -0.0654  0.8277  1.0000  -0.6738   0.0000   0.0000   0.0000   0.3964
   1.500   0.4510   0.01215   0.00561  -0.0650  0.8205  1.0000  -0.6870   0.0000   0.0000   0.0000   0.3920
   1.600   0.4603   0.01217   0.00563  -0.0645  0.8117  1.0000  -0.7002   0.0000   0.0000   0.0000   0.3878
   1.700   0.4715   0.01214   0.00557  -0.0641  0.8046  1.0000  -0.7158   0.0000   0.0000   0.0000   0.3837
   1.800   0.4836   0.01210   0.00548  -0.0639  0.7988  1.0000  -0.7335   0.0000   0.0000   0.0000   0.3797
   1.900   0.4925   0.01217   0.00558  -0.0633  0.7898  1.0000  -0.7491   0.0000   0.0000   0.0000   0.3761
   2.000   0.5026   0.01219   0.00559  -0.0628  0.7815  1.0000  -0.7677   0.0000   0.0000   0.0000   0.3725
   2.100   0.5137   0.01218   0.00554  -0.0625  0.7746  1.0000  -0.7892   0.0000   0.0000   0.0000   0.3690
   2.200   0.5248   0.01220   0.00552  -0.0621  0.7678  1.0000  -0.8120   0.0000   0.0000   0.0000   0.3657
   2.300   0.5339   0.01227   0.00559  -0.0616  0.7585  1.0000  -0.8345   0.0000   0.0000   0.0000   0.3626
   2.400   0.5443   0.01229   0.00559  -0.0612  0.7506  1.0000  -0.8593   0.0000   0.0000   0.0000   0.3596
   2.500   0.5556   0.01231   0.00555  -0.0608  0.7439  1.0000  -0.8889   0.0000   0.0000   0.0000   0.3566
   2.600   0.5655   0.01238   0.00561  -0.0604  0.7357  1.0000  -0.9163   0.0000   0.0000   0.0000   0.3539
   2.700   0.5752   0.01244   0.00567  -0.0600  0.7269  1.0000  -0.9442   0.0000   0.0000   0.0000   0.3512
   2.800   0.5858   0.01248   0.00567  -0.0596  0.7193  1.0000  -0.9779   0.0000   0.0000   0.0000   0.3485
   3.000   0.6063   0.01262   0.00577  -0.0588  0.7035  1.0000  -1.0445   0.0000   0.0000   0.0000   0.3437
   3.100   0.6164   0.01268   0.00582  -0.0583  0.6950  1.0000  -1.0779   0.0000   0.0000   0.0000   0.3413
   3.200   0.6272   0.01274   0.00582  -0.0580  0.6877  1.0000  -1.1157   0.0000   0.0000   0.0000   0.3390
   3.300   0.6376   0.01282   0.00588  -0.0576  0.6799  1.0000  -1.1562   0.0000   0.0000   0.0000   0.3368
   3.400   0.6472   0.01290   0.00597  -0.0571  0.6707  1.0000  -1.1954   0.0000   0.0000   0.0000   0.3347
   3.500   0.6574   0.01296   0.00601  -0.0567  0.6625  1.0000  -1.2366   0.0000   0.0000   0.0000   0.3326
   3.600   0.6684   0.01305   0.00601  -0.0563  0.6551  1.0000  -1.2800   0.0000   0.0000   0.0000   0.3305
   3.700   0.6779   0.01314   0.00614  -0.0559  0.6458  1.0000  -1.3198   0.0000   0.0000   0.0000   0.3286
   3.800   0.6878   0.01321   0.00627  -0.0555  0.6366  1.0000  -1.3621   0.0000   0.0000   0.0000   0.3267
   3.900   0.6983   0.01328   0.00628  -0.0550  0.6284  1.0000  -1.4057   0.0000   0.0000   0.0000   0.3248
   4.000   0.7083   0.01338   0.00637  -0.0546  0.6196  1.0000  -1.4543   0.0000   0.0000   0.0000   0.3230
   4.100   0.7179   0.01345   0.00646  -0.0541  0.6096  1.0000  -1.5040   0.0000   0.0000   0.0000   0.3212
   4.200   0.7280   0.01353   0.00648  -0.0536  0.6005  1.0000  -1.5563   0.0000   0.0000   0.0000   0.3194
   4.300   0.7381   0.01364   0.00655  -0.0532  0.5913  1.0000  -1.6086   0.0000   0.0000   0.0000   0.3177
   4.400   0.7475   0.01371   0.00665  -0.0527  0.5807  1.0000  -1.6596   0.0000   0.0000   0.0000   0.3161
   4.500   0.7575   0.01379   0.00668  -0.0522  0.5710  1.0000  -1.7132   0.0000   0.0000   0.0000   0.3144
   4.600   0.7673   0.01390   0.00676  -0.0518  0.5611  1.0000  -1.7664   0.0000   0.0000   0.0000   0.3128
   4.700   0.7767   0.01397   0.00686  -0.0512  0.5499  1.0000  -1.8190   0.0000   0.0000   0.0000   0.3112
   4.800   0.7866   0.01408   0.00690  -0.0507  0.5398  1.0000  -1.8739   0.0000   0.0000   0.0000   0.3097
   4.900   0.7961   0.01418   0.00701  -0.0502  0.5288  1.0000  -1.9274   0.0000   0.0000   0.0000   0.3082
   5.000   0.8055   0.01426   0.00709  -0.0497  0.5170  1.0000  -1.9815   0.0000   0.0000   0.0000   0.3067
   5.100   0.8151   0.01440   0.00714  -0.0492  0.5064  1.0000  -2.0371   0.0000   0.0000   0.0000   0.3052
   5.200   0.8243   0.01447   0.00727  -0.0487  0.4935  1.0000  -2.0985   0.0000   0.0000   0.0000   0.3038
   5.300   0.8335   0.01461   0.00733  -0.0481  0.4817  1.0000  -2.1651   0.0000   0.0000   0.0000   0.3024
   5.400   0.8427   0.01471   0.00746  -0.0476  0.4685  1.0000  -2.2313   0.0000   0.0000   0.0000   0.3010
   5.500   0.8516   0.01483   0.00753  -0.0469  0.4548  1.0000  -2.2977   0.0000   0.0000   0.0000   0.2996
   5.600   0.8606   0.01495   0.00766  -0.0464  0.4403  1.0000  -2.3644   0.0000   0.0000   0.0000   0.2983
   5.700   0.8691   0.01510   0.00781  -0.0457  0.4252  1.0000  -2.4235   0.0000   0.0000   0.0000   0.2969
   5.800   0.8779   0.01523   0.00795  -0.0452  0.4082  1.0000  -2.4891   0.0000   0.0000   0.0000   0.2956
   5.900   0.8860   0.01541   0.00806  -0.0445  0.3905  1.0000  -2.5542   0.0000   0.0000   0.0000   0.2942
   6.000   0.8939   0.01559   0.00819  -0.0437  0.3700  1.0000  -2.6188   0.0000   0.0000   0.0000   0.2929
   6.100   0.9018   0.01580   0.00834  -0.0431  0.3470  1.0000  -2.6831   0.0000   0.0000   0.0000   0.2916
   6.200   0.9089   0.01608   0.00852  -0.0423  0.3212  1.0000  -2.7452   0.0000   0.0000   0.0000   0.2902
   6.300   0.9151   0.01645   0.00873  -0.0414  0.2919  1.0000  -2.8038   0.0000   0.0000   0.0000   0.2888
   6.400   0.9209   0.01689   0.00900  -0.0405  0.2581  1.0000  -2.8601   0.0000   0.0000   0.0000   0.2874
   6.500   0.9257   0.01746   0.00934  -0.0395  0.2237  1.0000  -2.9116   0.0000   0.0000   0.0000   0.2860
   6.600   0.9303   0.01810   0.00976  -0.0385  0.1933  1.0000  -2.9606   0.0000   0.0000   0.0000   0.2847
   6.700   0.9353   0.01874   0.01023  -0.0376  0.1684  1.0000  -3.0084   0.0000   0.0000   0.0000   0.2833
   6.800   0.9404   0.01940   0.01074  -0.0366  0.1504  1.0000  -3.0545   0.0000   0.0000   0.0000   0.2820
   6.900   0.9449   0.02010   0.01127  -0.0356  0.1373  1.0000  -3.0989   0.0000   0.0000   0.0000   0.2806
   7.000   0.9518   0.02060   0.01178  -0.0349  0.1259  1.0000  -3.1492   0.0000   0.0000   0.0000   0.2795
   7.100   0.9569   0.02128   0.01234  -0.0339  0.1177  1.0000  -3.1938   0.0000   0.0000   0.0000   0.2782
   7.200   0.9643   0.02173   0.01281  -0.0332  0.1097  1.0000  -3.2468   0.0000   0.0000   0.0000   0.2771
   7.300   0.9692   0.02244   0.01339  -0.0324  0.1034  1.0000  -3.2944   0.0000   0.0000   0.0000   0.2759
   7.400   0.9771   0.02286   0.01386  -0.0317  0.0974  1.0000  -3.3478   0.0000   0.0000   0.0000   0.2749
   7.500   0.9843   0.02331   0.01431  -0.0311  0.0921  1.0000  -3.4036   0.0000   0.0000   0.0000   0.2739
   7.600   0.9899   0.02405   0.01495  -0.0303  0.0881  1.0000  -3.4515   0.0000   0.0000   0.0000   0.2728
   7.700   0.9976   0.02467   0.01560  -0.0296  0.0848  1.0000  -3.4973   0.0000   0.0000   0.0000   0.2718
   7.800   1.0058   0.02518   0.01616  -0.0290  0.0816  1.0000  -3.5465   0.0000   0.0000   0.0000   0.2708
   7.900   1.0137   0.02572   0.01677  -0.0284  0.0786  1.0000  -3.6002   0.0000   0.0000   0.0000   0.2699
   8.000   1.0214   0.02633   0.01735  -0.0279  0.0760  1.0000  -3.6537   0.0000   0.0000   0.0000   0.2690
   8.100   1.0293   0.02728   0.01823  -0.0274  0.0735  1.0000  -3.7014   0.0000   0.0000   0.0000   0.2683
   8.200   1.0385   0.02817   0.01915  -0.0270  0.0715  1.0000  -3.7419   0.0000   0.0000   0.0000   0.2675
   8.300   1.0475   0.02875   0.01983  -0.0265  0.0696  1.0000  -3.8047   0.0000   0.0000   0.0000   0.2667
   8.400   1.0560   0.02932   0.02048  -0.0260  0.0674  1.0000  -3.8735   0.0000   0.0000   0.0000   0.2658
   8.500   1.0639   0.02985   0.02104  -0.0254  0.0650  1.0000  -3.9468   0.0000   0.0000   0.0000   0.2651
   8.600   1.0713   0.03037   0.02155  -0.0250  0.0627  1.0000  -4.0265   0.0000   0.0000   0.0000   0.2643
   8.700   1.0792   0.03127   0.02237  -0.0247  0.0604  1.0000  -4.1060   0.0000   0.0000   0.0000   0.2638
   8.800   1.0875   0.03241   0.02357  -0.0243  0.0585  1.0000  -4.1668   0.0000   0.0000   0.0000   0.2632
   8.900   1.0953   0.03303   0.02433  -0.0237  0.0574  1.0000  -4.2283   0.0000   0.0000   0.0000   0.2623
   9.000   1.1032   0.03380   0.02523  -0.0231  0.0562  1.0000  -4.2867   0.0000   0.0000   0.0000   0.2615
   9.100   1.1109   0.03464   0.02618  -0.0225  0.0551  1.0000  -4.3437   0.0000   0.0000   0.0000   0.2607
   9.200   1.1182   0.03550   0.02716  -0.0219  0.0541  1.0000  -4.3995   0.0000   0.0000   0.0000   0.2599
   9.300   1.1252   0.03639   0.02815  -0.0213  0.0531  1.0000  -4.4547   0.0000   0.0000   0.0000   0.2591
   9.400   1.1319   0.03730   0.02914  -0.0207  0.0522  1.0000  -4.5102   0.0000   0.0000   0.0000   0.2584
   9.500   1.1380   0.03822   0.03017  -0.0200  0.0514  1.0000  -4.5629   0.0000   0.0000   0.0000   0.2576
   9.600   1.1439   0.03918   0.03121  -0.0194  0.0506  1.0000  -4.6153   0.0000   0.0000   0.0000   0.2568
   9.700   1.1494   0.04019   0.03230  -0.0187  0.0500  1.0000  -4.6666   0.0000   0.0000   0.0000   0.2560
   9.800   1.1546   0.04129   0.03348  -0.0181  0.0493  1.0000  -4.7156   0.0000   0.0000   0.0000   0.2553
   9.900   1.1594   0.04252   0.03479  -0.0174  0.0488  1.0000  -4.7599   0.0000   0.0000   0.0000   0.2546
  10.000   1.1634   0.04393   0.03629  -0.0168  0.0484  1.0000  -4.7959   0.0000   0.0000   0.0000   0.2538
  10.100   1.1663   0.04552   0.03799  -0.0160  0.0480  1.0000  -4.8211   0.0000   0.0000   0.0000   0.2530
  10.200   1.1680   0.04720   0.03980  -0.0152  0.0477  1.0000  -4.8363   0.0000   0.0000   0.0000   0.2522
  10.300   1.1684   0.04890   0.04165  -0.0143  0.0476  1.0000  -4.8445   0.0000   0.0000   0.0000   0.2513
  10.400   1.1680   0.05056   0.04351  -0.0133  0.0474  1.0000  -4.8529   0.0000   0.0000   0.0000   0.2504
  10.500   1.1667   0.05219   0.04528  -0.0123  0.0474  1.0000  -4.8556   0.0000   0.0000   0.0000   0.2494
  10.600   1.1648   0.05375   0.04698  -0.0112  0.0473  1.0000  -4.8562   0.0000   0.0000   0.0000   0.2484
  10.700   1.1623   0.05525   0.04862  -0.0101  0.0473  1.0000  -4.8555   0.0000   0.0000   0.0000   0.2474
  10.800   1.1592   0.05669   0.05018  -0.0090  0.0473  1.0000  -4.8539   0.0000   0.0000   0.0000   0.2463
  10.900   1.1553   0.05801   0.05162  -0.0078  0.0474  1.0000  -4.8509   0.0000   0.0000   0.0000   0.2452
  11.000   1.1504   0.05924   0.05296  -0.0065  0.0474  1.0000  -4.8463   0.0000   0.0000   0.0000   0.2440
  11.100   1.1452   0.06046   0.05429  -0.0053  0.0475  1.0000  -4.8402   0.0000   0.0000   0.0000   0.2428
  11.200   1.1395   0.06168   0.05561  -0.0041  0.0475  1.0000  -4.8323   0.0000   0.0000   0.0000   0.2417
  11.300   1.1333   0.06292   0.05696  -0.0031  0.0476  1.0000  -4.8221   0.0000   0.0000   0.0000   0.2406
  11.400   1.1267   0.06424   0.05838  -0.0022  0.0477  1.0000  -4.8089   0.0000   0.0000   0.0000   0.2397
  11.500   1.1197   0.06562   0.05986  -0.0015  0.0478  1.0000  -4.7926   0.0000   0.0000   0.0000   0.2390
  11.600   1.1122   0.06709   0.06143  -0.0010  0.0478  1.0000  -4.7729   0.0000   0.0000   0.0000   0.2384
  11.700   1.1041   0.06863   0.06308  -0.0006  0.0480  1.0000  -4.7491   0.0000   0.0000   0.0000   0.2379
  11.800   1.0953   0.07029   0.06484  -0.0005  0.0481  1.0000  -4.7194   0.0000   0.0000   0.0000   0.2377
  11.900   1.0853   0.07213   0.06679  -0.0007  0.0483  1.0000  -4.6796   0.0000   0.0000   0.0000   0.2377
  12.000   1.0729   0.07429   0.06908  -0.0013  0.0486  1.0000  -4.6198   0.0000   0.0000   0.0000   0.2381
  12.100   1.0552   0.07724   0.07220  -0.0026  0.0492  1.0000  -4.5165   0.0000   0.0000   0.0000   0.2392
  12.200   1.0281   0.08174   0.07685  -0.0057  0.0500  1.0000  -4.3413   0.0000   0.0000   0.0000   0.2421
  12.300   1.0039   0.08669   0.08195  -0.0093  0.0507  1.0000  -4.1807   0.0000   0.0000   0.0000   0.2457
  12.400   0.9790   0.09251   0.08789  -0.0137  0.0515  1.0000  -4.0004   0.0000   0.0000   0.0000   0.2504
  12.500   0.9531   0.09944   0.09491  -0.0191  0.0525  1.0000  -3.7916   0.0000   0.0000   0.0000   0.2564
  12.600   0.9286   0.10704   0.10257  -0.0246  0.0538  1.0000  -3.5678   0.0000   0.0000   0.0000   0.2629
  12.700   0.9108   0.11375   0.10929  -0.0289  0.0550  1.0000  -3.3826   0.0000   0.0000   0.0000   0.2682
  12.800   0.8997   0.11898   0.11451  -0.0317  0.0560  1.0000  -3.2541   0.0000   0.0000   0.0000   0.2718
  12.900   0.8929   0.12287   0.11839  -0.0336  0.0567  1.0000  -3.1749   0.0000   0.0000   0.0000   0.2741
  13.000   0.8886   0.12597   0.12148  -0.0348  0.0573  1.0000  -3.1250   0.0000   0.0000   0.0000   0.2756
  13.100   0.8859   0.12854   0.12405  -0.0356  0.0579  1.0000  -3.0963   0.0000   0.0000   0.0000   0.2766
  13.200   0.8849   0.13058   0.12608  -0.0360  0.0584  1.0000  -3.0899   0.0000   0.0000   0.0000   0.2769
  13.300   0.8867   0.13176   0.12725  -0.0354  0.0589  1.0000  -3.1199   0.0000   0.0000   0.0000   0.2760
  13.400   0.8491   0.15626   0.15177  -0.0480  0.1042  1.0000  -2.2314   0.0000   0.0000   0.0000   0.2939
  13.500   0.8558   0.15792   0.15345  -0.0470  0.1037  1.0000  -2.2751   0.0000   0.0000   0.0000   0.2921
  13.600   0.8665   0.16047   0.15603  -0.0446  0.1029  1.0000  -2.3489   0.0000   0.0000   0.0000   0.2885
  13.700   0.8628   0.16340   0.15893  -0.0462  0.1027  1.0000  -2.3064   0.0000   0.0000   0.0000   0.2905
  13.800   0.8561   0.16593   0.16143  -0.0488  0.1025  1.0000  -2.2405   0.0000   0.0000   0.0000   0.2939
  13.900   0.8453   0.16837   0.16384  -0.0526  0.1019  1.0000  -2.1399   0.0000   0.0000   0.0000   0.2991
  14.000   0.8272   0.17093   0.16634  -0.0586  0.0985  1.0000  -1.9794   0.0000   0.0000   0.0000   0.3077
  14.100   0.8261   0.17278   0.16818  -0.0598  0.0969  1.0000  -1.9577   0.0000   0.0000   0.0000   0.3092
  14.200   0.8265   0.17449   0.16989  -0.0607  0.0956  1.0000  -1.9477   0.0000   0.0000   0.0000   0.3101
  14.300   0.8277   0.17612   0.17152  -0.0614  0.0944  1.0000  -1.9448   0.0000   0.0000   0.0000   0.3107
  14.400   0.8296   0.17768   0.17308  -0.0619  0.0932  1.0000  -1.9479   0.0000   0.0000   0.0000   0.3110
  14.500   0.8323   0.17917   0.17457  -0.0623  0.0922  1.0000  -1.9571   0.0000   0.0000   0.0000   0.3111
  14.600   0.8358   0.18062   0.17603  -0.0625  0.0912  1.0000  -1.9731   0.0000   0.0000   0.0000   0.3109
  14.700   0.8404   0.18204   0.17746  -0.0624  0.0903  1.0000  -1.9977   0.0000   0.0000   0.0000   0.3102
  14.800   0.8483   0.18323   0.17867  -0.0614  0.0892  1.0000  -2.0538   0.0000   0.0000   0.0000   0.3082
  14.900   0.8684   0.18595   0.18143  -0.0559  0.0870  1.0000  -2.2292   0.0000   0.0000   0.0000   0.3000
  15.000   0.8641   0.18794   0.18340  -0.0582  0.0868  1.0000  -2.1705   0.0000   0.0000   0.0000   0.3029


